
  EPA STORM WATER MANAGEMENT MODEL - VERSION 5.0 (Build 5.0.022)
  --------------------------------------------------------------

  INP file created by FLO-2D 
  
  *********************************************************
  NOTE: The summary statistics displayed in this report are
  based on results found at every computational time step,  
  not just on results from each reporting time step.
  *********************************************************
  
  ****************
  Analysis Options
  ****************
  Flow Units ............... CFS
  Process Models:
    Snowmelt ............... NO
    Groundwater ............ NO
    Flow Routing ........... YES
    Ponding Allowed ........ NO
    Water Quality .......... NO
  Infiltration Method ...... HORTON
  Flow Routing Method ...... DYNWAVE
  Starting Date ............ OCT-17-2024 00:00:00
  Ending Date .............. OCT-17-2024 10:00:00
  Antecedent Dry Days ...... 0.0
  Report Time Step ......... 00:06:00
  Wet Time Step ............ 00:05:00
  Dry Time Step ............ 01:00:00
  Routing Time Step ........ 60.00 sec
  

  WARNING 08: elevation drop exceeds length for Conduit P-I1-36-31-146

  WARNING 08: elevation drop exceeds length for Conduit P-I1-36-31-35

  WARNING 08: elevation drop exceeds length for Conduit P-I1-36-31-40

  WARNING 08: elevation drop exceeds length for Conduit P-I1-36-31-42

  WARNING 08: elevation drop exceeds length for Conduit P-I1-36-31-43

  WARNING 08: elevation drop exceeds length for Conduit P-I1-36-31-52

  WARNING 08: elevation drop exceeds length for Conduit P-I1-36-32-59

  WARNING 08: elevation drop exceeds length for Conduit P-I1-36-32-63

  WARNING 08: elevation drop exceeds length for Conduit P-I1-36-32-66

  WARNING 08: elevation drop exceeds length for Conduit P-I1-37-32-53

  WARNING 04: minimum elevation drop used for Conduit P-I1-37-32-57

  WARNING 05: minimum slope used for Conduit P-I1-37-32-57

  WARNING 08: elevation drop exceeds length for Conduit P-I3-36-31-165

  WARNING 08: elevation drop exceeds length for Conduit P-I3-36-31-167

  WARNING 08: elevation drop exceeds length for Conduit P-I3-36-31-168

  WARNING 08: elevation drop exceeds length for Conduit P-I3-36-31-171

  WARNING 08: elevation drop exceeds length for Conduit P-I3-36-31-173

  WARNING 04: minimum elevation drop used for Conduit P-J1-37-31-5-A

  WARNING 05: minimum slope used for Conduit P-J1-37-31-5-A

  WARNING 02: maximum depth increased for Node I4-37-32-41

  WARNING 02: maximum depth increased for Node I4-37-32-44

  WARNING 02: maximum depth increased for Node I4-37-32-45

  WARNING 02: maximum depth increased for Node I4-37-32-46

  WARNING 02: maximum depth increased for Node I4-37-32-60
  
  *************
  Element Count
  *************
  Number of nodes ........... 292
  Number of links ........... 278
  Number of pollutants ...... 0
  Number of land uses ....... 0
  
  
  ************
  Node Summary
  ************
                                          Invert      Max.    Ponded    External
  Name                Type                 Elev.     Depth      Area    Inflow  
  ------------------------------------------------------------------------------
  I1-35-31-18         JUNCTION           1399.43     15.00       0.0
  I1-35-32-54         JUNCTION           1399.43     15.00       0.0
  I1-36-30-36         JUNCTION           1401.93      4.50       0.0
  I1-36-30-44         JUNCTION           1402.20      3.80       0.0
  I1-36-30-45         JUNCTION           1404.50      3.50       0.0
  I1-36-31-133        JUNCTION           1405.73      4.80       0.0
  I1-36-31-136        JUNCTION           1405.93      4.60       0.0
  I1-36-31-141        JUNCTION           1407.14      3.80       0.0
  I1-36-31-146        JUNCTION           1405.52      6.70       0.0
  I1-36-31-151        JUNCTION           1407.75      3.90       0.0
  I1-36-31-155        JUNCTION           1407.99      5.30       0.0
  I1-36-31-156        JUNCTION           1409.16      3.30       0.0
  I1-36-31-176        JUNCTION           1409.52      4.10       0.0
  I1-36-31-177        JUNCTION           1406.07      7.50       0.0
  I1-36-31-179        JUNCTION           1409.48      6.40       0.0
  I1-36-31-180        JUNCTION           1414.37      4.50       0.0
  I1-36-31-181        JUNCTION           1419.97      4.50       0.0
  I1-36-31-33         JUNCTION           1407.51     10.00       0.0
  I1-36-31-34         JUNCTION           1404.00      4.80       0.0
  I1-36-31-35         JUNCTION           1404.60      3.80       0.0
  I1-36-31-40         JUNCTION           1402.60      3.60       0.0
  I1-36-31-41         JUNCTION           1402.30      4.00       0.0
  I1-36-31-42         JUNCTION           1402.60      4.00       0.0
  I1-36-31-43         JUNCTION           1403.90      3.50       0.0
  I1-36-31-44         JUNCTION           1400.20      3.20       0.0
  I1-36-31-45         JUNCTION           1400.70      4.20       0.0
  I1-36-31-46         JUNCTION           1402.20      3.80       0.0
  I1-36-31-51         JUNCTION           1406.10      3.10       0.0
  I1-36-31-52         JUNCTION           1404.72      5.90       0.0
  I1-36-32-12         JUNCTION           1427.48      4.10       0.0
  I1-36-32-13         JUNCTION           1409.59     17.00       0.0
  I1-36-32-14         JUNCTION           1424.77      4.20       0.0
  I1-36-32-15         JUNCTION           1419.75      7.40       0.0
  I1-36-32-57         JUNCTION           1404.16      9.60       0.0
  I1-36-32-59         JUNCTION           1409.10      5.30       0.0
  I1-36-32-63         JUNCTION           1409.78      5.50       0.0
  I1-36-32-66         JUNCTION           1413.07      5.70       0.0
  I1-36-32-70         JUNCTION           1420.91      4.40       0.0
  I1-37-30-18         JUNCTION           1407.00      5.90       0.0
  I1-37-30-19         JUNCTION           1400.13     10.00       0.0
  I1-37-30-20         JUNCTION           1399.38      8.00       0.0
  I1-37-30-21         JUNCTION           1398.51      9.30       0.0
  I1-37-30-22         JUNCTION           1411.95      4.40       0.0
  I1-37-30-23         JUNCTION           1411.07      4.30       0.0
  I1-37-31-13         JUNCTION           1409.60      3.10       0.0
  I1-37-31-16         JUNCTION           1400.14     11.00       0.0
  I1-37-31-22         JUNCTION           1407.51     10.00       0.0
  I1-37-31-23         JUNCTION           1408.13     10.00       0.0
  I1-37-31-25         JUNCTION           1409.75     10.00       0.0
  I1-37-31-26         JUNCTION           1411.95      4.70       0.0
  I1-37-31-27         JUNCTION           1408.80     10.00       0.0
  I1-37-31-29         JUNCTION           1411.68      4.30       0.0
  I1-37-31-30         JUNCTION           1411.90      4.20       0.0
  I1-37-31-41-1       JUNCTION           1422.30      3.90       0.0
  I1-37-31-42-2       JUNCTION           1418.60      7.90       0.0
  I1-37-31-47-1       JUNCTION           1424.04      4.20       0.0
  I1-37-31-48-2       JUNCTION           1425.37      5.00       0.0
  I1-37-31-49-1       JUNCTION           1426.70      4.40       0.0
  I1-37-31-49-3       JUNCTION           1426.70      4.20       0.0
  I1-37-32-33-1       JUNCTION           1433.10      7.00       0.0
  I1-37-32-37         JUNCTION           1422.86      5.10       0.0
  I1-37-32-38         JUNCTION           1423.86      4.20       0.0
  I1-37-32-39         JUNCTION           1424.25      8.30       0.0
  I1-37-32-40         JUNCTION           1422.99      8.70       0.0
  I1-37-32-42         JUNCTION           1409.64     17.00       0.0
  I1-37-32-43         JUNCTION           1424.04      3.90       0.0
  I1-37-32-52-1       JUNCTION           1429.37      4.60       0.0
  I1-37-32-53         JUNCTION           1426.39      7.20       0.0
  I1-37-32-55         JUNCTION           1437.81      3.90       0.0
  I1-37-32-56         JUNCTION           1437.22      4.10       0.0
  I1-37-32-57         JUNCTION           1427.37      4.00       0.0
  I1-37-32-59         JUNCTION           1429.39      4.00       0.0
  I1-38-30-12         JUNCTION           1415.77      4.10       0.0
  I1-38-30-13         JUNCTION           1420.55      4.80       0.0
  I1-38-30-14         JUNCTION           1414.65      4.20       0.0
  I1-38-31-31         JUNCTION           1413.98      5.30       0.0
  I1-38-32-42         JUNCTION           1434.80      4.20       0.0
  I2-35-32-52         JUNCTION           1412.60      6.40       0.0
  I2-35-32-53         JUNCTION           1413.60      4.60       0.0
  I2-35-32-62         JUNCTION           1416.10      4.90       0.0
  I2-35-32-63         JUNCTION           1415.30      5.70       0.0
  I2-35-32-64         JUNCTION           1416.30      4.00       0.0
  I2-35-32-74         JUNCTION           1415.60      4.10       0.0
  I2-35-32-75         JUNCTION           1414.60      4.10       0.0
  I2-36-30-38         JUNCTION           1388.04      3.70       0.0
  I2-36-30-39         JUNCTION           1387.20      4.20       0.0
  I2-36-30-40         JUNCTION           1391.40      3.20       0.0
  I2-36-30-41         JUNCTION           1390.40      5.50       0.0
  I2-36-30-46         JUNCTION           1397.40      5.00       0.0
  I2-36-30-47         JUNCTION           1398.90      3.70       0.0
  I2-36-30-49         JUNCTION           1395.10      5.50       0.0
  I2-36-30-50         JUNCTION           1396.30      4.00       0.0
  I2-36-30-71         JUNCTION           1397.00      2.20       0.0
  I2-36-31-30         JUNCTION           1406.22      5.20       0.0
  I2-36-31-31         JUNCTION           1408.27      5.40       0.0
  I2-36-31-32         JUNCTION           1409.08      5.00       0.0
  I2-36-31-36         JUNCTION           1408.60      4.40       0.0
  I2-36-31-37         JUNCTION           1407.70      6.30       0.0
  I2-36-31-50         JUNCTION           1404.80      6.90       0.0
  I2-36-31-53         JUNCTION           1403.80      3.80       0.0
  I2-36-31-55         JUNCTION           1407.40      4.00       0.0
  I2-37-31-17         JUNCTION           1405.53      6.50       0.0
  I2-37-31-18         JUNCTION           1405.26      8.30       0.0
  I2-37-31-19         JUNCTION           1405.87      8.20       0.0
  I2-37-31-20         JUNCTION           1409.98      5.50       0.0
  I2-37-31-21         JUNCTION           1412.22      4.50       0.0
  I2-37-32-35-B       JUNCTION           1427.37      4.10       0.0
  I2-37-32-54         JUNCTION           1436.65      4.00       0.0
  I2-38-32-41         JUNCTION           1435.52      3.90       0.0
  I3-36-31-165        JUNCTION           1408.23      4.20       0.0
  I3-36-31-167        JUNCTION           1407.72      4.20       0.0
  I3-36-31-168        JUNCTION           1407.47      4.00       0.0
  I3-36-31-171        JUNCTION           1410.50      4.60       0.0
  I3-36-31-173        JUNCTION           1409.26      4.40       0.0
  I3-37-31-15         JUNCTION           1400.60     11.00       0.0
  I3-37-31-24         JUNCTION           1413.34      9.50       0.0
  I3-37-31-28         JUNCTION           1411.79      3.70       0.0
  I3-37-31-42-3       JUNCTION           1420.80      5.70       0.0
  I3-37-32-48         JUNCTION           1417.00      4.10       0.0
  I3-37-32-49         JUNCTION           1416.26      7.30       0.0
  I3-37-32-50         JUNCTION           1415.69      6.10       0.0
  I3-37-32-51         JUNCTION           1417.00      4.60       0.0
  I3-37-32-52         JUNCTION           1417.00      4.00       0.0
  I3-38-32-36         JUNCTION           1425.00      4.30       0.0
  I3-38-32-37         JUNCTION           1430.50      4.90       0.0
  I4-37-32-26-1       JUNCTION           1418.80      4.00       0.0
  I4-37-32-41         JUNCTION           1427.40      1.20       0.0
  I4-37-32-44         JUNCTION           1429.88      1.20       0.0
  I4-37-32-45         JUNCTION           1427.32      1.20       0.0
  I4-37-32-46         JUNCTION           1427.09      1.20       0.0
  I4-37-32-60         JUNCTION           1431.57      1.20       0.0
  I5-35-32-14-A       JUNCTION           1400.70     13.00       0.0
  I5-35-32-34         JUNCTION           1397.18     19.00       0.0
  I5-35-32-93         JUNCTION           1397.25     17.00       0.0
  I5-36-30-27         JUNCTION           1387.42     19.00       0.0
  I5-36-30-28         JUNCTION           1386.63     17.00       0.0
  I5-36-30-30         JUNCTION           1391.79     18.00       0.0
  I5-36-30-31         JUNCTION           1386.48     16.00       0.0
  I5-36-30-32         JUNCTION           1388.69     19.00       0.0
  I5-36-31-1          JUNCTION           1408.94     18.00       0.0
  I5-36-31-134        JUNCTION           1392.48     19.00       0.0
  I5-36-31-140        JUNCTION           1404.77      6.80       0.0
  I5-36-31-148        JUNCTION           1395.45     17.00       0.0
  I5-36-31-149        JUNCTION           1405.25      6.30       0.0
  I5-36-31-170        JUNCTION           1397.76     17.00       0.0
  I5-36-31-49         JUNCTION           1406.10      3.50       0.0
  I5-36-31-74         JUNCTION           1392.38     17.00       0.0
  I5-36-31-74-1       JUNCTION           1392.48     17.00       0.0
  I5-36-32-55         JUNCTION           1399.53     15.00       0.0
  I5-36-32-61         JUNCTION           1403.17     15.00       0.0
  I5-36-32-65         JUNCTION           1405.69     18.00       0.0
  I5-37-30-10         JUNCTION           1398.00      8.70       0.0
  I5-37-30-12         JUNCTION           1406.29     12.00       0.0
  I5-37-30-314        JUNCTION           1403.40     12.00       0.0
  I5-37-30-8          JUNCTION           1396.11     16.00       0.0
  I5-37-30-9          JUNCTION           1396.00     12.00       0.0
  I5-37-31-10         JUNCTION           1404.36     19.00       0.0
  I5-37-31-12         JUNCTION           1397.38     16.00       0.0
  I5-37-31-3          JUNCTION           1409.96     17.00       0.0
  I5-37-31-47         JUNCTION           1412.57     16.00       0.0
  I5-37-31-5          JUNCTION           1404.10     10.00       0.0
  I5-37-31-50         JUNCTION           1413.13     18.00       0.0
  I5-37-31-6          JUNCTION           1404.41     10.00       0.0
  I5-37-31-7          JUNCTION           1406.98      9.80       0.0
  I5-37-31-9          JUNCTION           1399.36     19.00       0.0
  I5-37-32-27         JUNCTION           1413.85      8.60       0.0
  I5-37-32-28         JUNCTION           1415.30      7.10       0.0
  I5-37-32-29         JUNCTION           1409.95     18.00       0.0
  I5-37-32-30         JUNCTION           1412.24     17.00       0.0
  I5-37-32-32         JUNCTION           1414.10     20.00       0.0
  I5-37-32-33         JUNCTION           1431.90      4.30       0.0
  I5-37-32-34         JUNCTION           1414.43      9.40       0.0
  I5-37-32-35         JUNCTION           1413.28     18.00       0.0
  I5-37-32-36         JUNCTION           1410.59     17.00       0.0
  I5-38-30-5          JUNCTION           1420.55      5.10       0.0
  I5-38-30-6          JUNCTION           1408.09     11.00       0.0
  I5-38-32-26         JUNCTION           1418.25     13.00       0.0
  I5-38-32-27         JUNCTION           1419.48     12.00       0.0
  Ids1                JUNCTION           1380.00     15.00       0.0
  Ids2                JUNCTION           1382.00     13.00       0.0
  Ids3                JUNCTION           1384.00     11.00       0.0
  Ids4                JUNCTION           1386.00      9.00       0.0
  J1-35-32-14         JUNCTION           1397.55     17.00       0.0
  J1-35-32-34-A       JUNCTION           1397.43     17.00       0.0
  J1-35-32-34-B       JUNCTION           1397.40     17.00       0.0
  J1-35-32-83         JUNCTION           1414.30      6.80       0.0
  J1-35-32-87         JUNCTION           1413.80      6.00       0.0
  J1-36-30-27-A       JUNCTION           1388.57     19.00       0.0
  J1-36-30-27-B       JUNCTION           1388.07     19.00       0.0
  J1-36-30-27-C       JUNCTION           1387.50     19.00       0.0
  J1-36-30-28-A       JUNCTION           1387.30     19.00       0.0
  J1-36-30-28-B       JUNCTION           1387.20     19.00       0.0
  J1-36-30-28-C       JUNCTION           1387.12     19.00       0.0
  J1-36-30-29-A       JUNCTION           1395.80      4.20       0.0
  J1-36-30-32-A       JUNCTION           1388.98     19.00       0.0
  J1-36-30-32-B       JUNCTION           1388.81     19.00       0.0
  J1-36-31-1-B        JUNCTION           1409.52     18.00       0.0
  J1-36-31-134-A      JUNCTION           1393.11     18.00       0.0
  J1-36-31-134-C      JUNCTION           1392.83     18.00       0.0
  J1-36-31-134-D      JUNCTION           1392.60     17.00       0.0
  J1-36-31-134-E      JUNCTION           1392.50     17.00       0.0
  J1-36-31-148-A      JUNCTION           1397.36     17.00       0.0
  J1-36-31-148-B      JUNCTION           1396.29     17.00       0.0
  J1-36-31-165-O      JUNCTION           1395.31     17.00       0.0
  J1-36-31-183        JUNCTION           1393.24     18.00       0.0
  J1-36-31-183-A      JUNCTION           1394.79     17.00       0.0
  J1-36-31-183-B      JUNCTION           1394.26     17.00       0.0
  J1-36-31-183-C      JUNCTION           1394.19     17.00       0.0
  J1-36-31-26-A       JUNCTION           1392.36     16.00       0.0
  J1-36-31-26-B       JUNCTION           1392.35     17.00       0.0
  J1-36-31-48         JUNCTION           1405.30      4.70       0.0
  J1-36-31-62         JUNCTION           1398.60     18.00       0.0
  J1-36-31-62-A       JUNCTION           1398.67     18.00       0.0
  J1-36-31-64         JUNCTION           1408.71     18.00       0.0
  J1-36-32-24-A       JUNCTION           1398.48     15.00       0.0
  J1-36-32-24-B       JUNCTION           1398.05     15.00       0.0
  J1-36-32-24-C       JUNCTION           1398.00     15.00       0.0
  J1-36-32-24-D       JUNCTION           1397.92     16.00       0.0
  J1-36-32-55-A       JUNCTION           1399.67     15.00       0.0
  J1-36-32-61-A       JUNCTION           1403.43     15.00       0.0
  J1-36-32-61-B       JUNCTION           1403.39     15.00       0.0
  J1-36-32-65-A       JUNCTION           1407.56     17.00       0.0
  J1-36-32-65-B       JUNCTION           1405.99     18.00       0.0
  J1-37-30-17-B       JUNCTION           1395.19     16.00       0.0
  J1-37-30-2-B        JUNCTION           1401.48     14.00       0.0
  J1-37-30-29         JUNCTION           1394.70     17.00       0.0
  J1-37-30-3-A        JUNCTION           1405.06     11.00       0.0
  J1-37-30-3-C        JUNCTION           1403.88     12.00       0.0
  J1-37-30-31         JUNCTION           1393.99     17.00       0.0
  J1-37-30-31-A       JUNCTION           1394.62     17.00       0.0
  J1-37-30-31-B       JUNCTION           1394.60     17.00       0.0
  J1-37-30-31-D       JUNCTION           1394.13     17.00       0.0
  J1-37-30-9-A        JUNCTION           1397.13     10.00       0.0
  J1-37-31-1-A        JUNCTION           1413.28     20.00       0.0
  J1-37-31-10-A       JUNCTION           1405.76     17.00       0.0
  J1-37-31-12-B       JUNCTION           1400.07     14.00       0.0
  J1-37-31-2          JUNCTION           1401.68     19.00       0.0
  J1-37-31-32         JUNCTION           1401.45     14.00       0.0
  J1-37-31-41-2       JUNCTION           1411.31     14.00       0.0
  J1-37-31-42         JUNCTION           1411.52     14.00       0.0
  J1-37-31-43         JUNCTION           1409.10     18.00       0.0
  J1-37-31-46-A       JUNCTION           1412.37     15.00       0.0
  J1-37-31-47-2       JUNCTION           1412.43     15.00       0.0
  J1-37-31-48-1       JUNCTION           1412.79     17.00       0.0
  J1-37-31-49-2       JUNCTION           1412.97     18.00       0.0
  J1-37-31-5-A        JUNCTION           1404.10     10.00       0.0
  J1-37-31-6-A        JUNCTION           1405.53     10.00       0.0
  J1-37-31-9-A        JUNCTION           1400.24     18.00       0.0
  J1-37-32-1          JUNCTION           1414.18      8.40       0.0
  J1-37-32-2          JUNCTION           1414.16      8.30       0.0
  J1-37-32-26         JUNCTION           1413.30     20.00       0.0
  J1-37-32-29-A       JUNCTION           1410.27     18.00       0.0
  J1-37-32-29-B       JUNCTION           1410.24     18.00       0.0
  J1-37-32-3          JUNCTION           1413.70      8.70       0.0
  J1-37-32-30-A       JUNCTION           1412.66     18.00       0.0
  J1-37-32-32-B       JUNCTION           1417.52     16.00       0.0
  J1-37-32-35-A       JUNCTION           1413.76     19.00       0.0
  J1-37-32-35-B       JUNCTION           1413.53     19.00       0.0
  J1-37-32-35-D       JUNCTION           1413.38     18.00       0.0
  J1-37-32-52-2       JUNCTION           1413.25     20.00       0.0
  J1-37-32-6-A        JUNCTION           1413.83      8.50       0.0
  J1-37-32-61         JUNCTION           1414.62     10.00       0.0
  J1-37-32-61-A       JUNCTION           1414.99     21.00       0.0
  J1-37-32-62         JUNCTION           1414.62      7.30       0.0
  J1-38-30-5          JUNCTION           1411.02     14.00       0.0
  J1-38-30-6-A        JUNCTION           1409.93     10.00       0.0
  J1-38-32-14         JUNCTION           1416.54     10.00       0.0
  J3-38-32-2          JUNCTION           1419.80     10.00       0.0
  J3-38-32-38         JUNCTION           1425.50      8.00       0.0
  J5-37-30-2          JUNCTION           1400.66     14.00       0.0
  O-35-31-23          OUTFALL            1397.16      8.50       0.0
  O-35-31-9           OUTFALL            1396.70      1.20       0.0
  O-35-32-35-A        OUTFALL            1403.30      1.20       0.0
  O-35-32-42-B        OUTFALL            1405.20      1.20       0.0
  O-35-32-46-B        OUTFALL            1404.60      1.20       0.0
  O-35-32-46-C        OUTFALL            1404.20      1.20       0.0
  O-36-30-1           OUTFALL            1380.30      1.20       0.0
  O-36-30-10          OUTFALL            1386.60      1.20       0.0
  O-36-30-106         OUTFALL            1381.61      1.20       0.0
  O-36-30-11          OUTFALL            1383.80      1.20       0.0
  O-36-30-21-A        OUTFALL            1387.19      1.20       0.0
  O-36-30-67          OUTFALL            1385.50      1.20       0.0
  O-36-30-96          OUTFALL            1385.50      7.00       0.0
  O-36-31-11          OUTFALL            1394.10      1.20       0.0
  O-36-31-13          OUTFALL            1392.15      7.00       0.0
  O-36-31-14          OUTFALL            1394.80      1.20       0.0
  O-36-31-23          OUTFALL            1387.97      1.20       0.0
  O-36-31-28          OUTFALL            1389.02      1.20       0.0
  Ocistern            OUTFALL            1380.00      5.50       0.0
  Cistern1            STORAGE            1385.00      9.00       0.0
  Cistern2            STORAGE            1385.00      9.00       0.0
  Cistern3            STORAGE            1385.00      9.00       0.0
  
  
  ************
  Link Summary
  ************
  Name            From Node       To Node         Type            Length    %Slope Roughness
  ------------------------------------------------------------------------------------------
  DS2-1           Ids2            Ids1            CONDUIT          123.7    1.6170    0.0180
  DS3-2           Ids3            Ids2            CONDUIT          180.0    1.1111    0.0180
  DS4-3           Ids4            Ids3            CONDUIT          153.0    1.3074    0.0180
  P-I1-35-31-18   I1-35-31-18     J1-35-32-34-A   CONDUIT           33.0    6.0718    0.0130
  P-I1-35-32-54   I1-35-32-54     J1-35-32-34-B   CONDUIT            7.0   30.3022    0.0130
  P-I1-36-30-36   I1-36-30-36     I5-37-30-10     CONDUIT           50.0    7.8828    0.0130
  P-I1-36-30-44   I1-36-30-44     J1-36-30-28-B   CONDUIT           46.5   34.0717    0.0130
  P-I1-36-30-45   I1-36-30-45     J1-36-30-27-A   CONDUIT           47.0   36.0260    0.0130
  P-I1-36-31-133  I1-36-31-133    J1-36-31-134-E  CONDUIT           36.3   39.2006    0.0130
  P-I1-36-31-136  I1-36-31-136    J1-36-31-134-D  CONDUIT           14.0  311.5107    0.0130
  P-I1-36-31-141  I1-36-31-141    J1-36-31-134-C  CONDUIT           24.0   74.2714    0.0130
  P-I1-36-31-146  I1-36-31-146    J1-36-31-134-A  CONDUIT            8.7  142.1535    0.0130
  P-I1-36-31-151  I1-36-31-151    I5-36-31-149    CONDUIT           24.0   10.4736    0.0130
  P-I1-36-31-155  I1-36-31-155    J1-36-31-183-C  CONDUIT           85.3   16.3882    0.0130
  P-I1-36-31-156  I1-36-31-156    I1-36-31-155    CONDUIT           26.5    4.4177    0.0130
  P-I1-36-31-176  I1-36-31-176    J1-36-32-24-D   CONDUIT           31.5   39.5653    0.0130
  P-I1-36-31-177  I1-36-31-177    J1-36-32-24-B   CONDUIT           30.8   26.9412    0.0130
  P-I1-36-31-179  I1-36-31-179    J1-36-32-55-A   CONDUIT           30.0   34.6023    0.0130
  P-I1-36-31-180  I1-36-31-180    J1-36-32-61-A   CONDUIT           30.0   39.1635    0.0130
  P-I1-36-31-181  I1-36-31-181    J1-36-32-65-B   CONDUIT           27.5   58.9181    0.0130
  P-I1-36-31-33   I1-36-31-33     J1-36-31-62-A   CONDUIT           32.0   28.7435    0.0130
  P-I1-36-31-34   I1-36-31-34     J1-36-30-32-A   CONDUIT           16.0  272.4181    0.0130
  P-I1-36-31-35   I1-36-31-35     J1-36-30-32-B   CONDUIT           12.0  131.5833    0.0130
  P-I1-36-31-40   I1-36-31-40     J1-36-30-28-C   CONDUIT           11.0  140.7273    0.0130
  P-I1-36-31-41   I1-36-31-41     J1-36-30-28-A   CONDUIT           56.0   27.7963    0.0130
  P-I1-36-31-42   I1-36-31-42     J1-36-30-27-C   CONDUIT           12.0  125.8333    0.0130
  P-I1-36-31-43   I1-36-31-43     J1-36-30-27-B   CONDUIT           12.0  131.9167    0.0130
  P-I1-36-31-44   I1-36-31-44     O-36-30-21-A    CONDUIT          126.9   10.3073    0.0130
  P-I1-36-31-45   I1-36-31-45     I1-36-31-44     CONDUIT           47.8    1.0470    0.0130
  P-I1-36-31-46   I1-36-31-46     O-36-31-23      CONDUIT           99.6   14.4382    0.0130
  P-I1-36-31-51   I1-36-31-51     J1-36-31-26-B   CONDUIT           24.7   67.1689    0.0130
  P-I1-36-31-52   I1-36-31-52     J1-36-31-26-A   CONDUIT           10.0  123.6000    0.0130
  P-I1-36-32-12   I1-36-32-12     J1-37-32-35-D   CONDUIT           51.0   28.7623    0.0130
  P-I1-36-32-13   I1-36-32-13     J1-36-31-1-B    CONDUIT           48.0    0.1458    0.0130
  P-I1-36-32-14   I1-36-32-14     I5-37-32-30     CONDUIT           52.0   24.8226    0.0130
  P-I1-36-32-15   I1-36-32-15     I5-37-32-36     CONDUIT           53.0   17.5437    0.0130
  P-I1-36-32-57   I1-36-32-57     J1-36-32-24-C   CONDUIT            6.9  192.7071    0.0130
  P-I1-36-32-59   I1-36-32-59     J1-36-32-24-A   CONDUIT            9.0  117.8690    0.0130
  P-I1-36-32-63   I1-36-32-63     J1-36-32-55-A   CONDUIT            9.4  107.5532    0.0130
  P-I1-36-32-66   I1-36-32-66     J1-36-32-61-B   CONDUIT            8.8  110.5023    0.0130
  P-I1-36-32-70   I1-36-32-70     J1-36-32-65-A   CONDUIT           38.8   36.6232    0.0130
  P-I1-37-30-18   I1-37-30-18     I5-37-30-8      CONDUIT           25.0   48.3925    0.0130
  P-I1-37-30-19   I1-37-30-19     J1-37-30-31-D   CONDUIT           27.0   22.7921    0.0130
  P-I1-37-30-20   I1-37-30-20     I5-37-30-10     CONDUIT           42.0    3.2875    0.0130
  P-I1-37-30-21   I1-37-30-21     J1-37-30-9-A    CONDUIT           42.0    3.2875    0.0130
  P-I1-37-30-22   I1-37-30-22     J1-37-30-3-C    CONDUIT           23.5   36.5640    0.0130
  P-I1-37-30-23   I1-37-30-23     J5-37-30-2      CONDUIT           25.3   45.1449    0.0130
  P-I1-37-31-13   I1-37-31-13     I5-37-30-8      CONDUIT           37.0   39.1546    0.0130
  P-I1-37-31-16   I1-37-31-16     J1-37-30-31-D   CONDUIT           37.3   16.3349    0.0130
  P-I1-37-31-22   I1-37-31-22     I5-37-31-9      CONDUIT           41.8   19.8841    0.0130
  P-I1-37-31-23   I1-37-31-23     J1-37-31-9-A    CONDUIT           39.1   20.5809    0.0130
  P-I1-37-31-25   I1-37-31-25     J1-37-31-2      CONDUIT           40.2   20.4918    0.0130
  P-I1-37-31-26   I1-37-31-26     J1-37-30-3-C    CONDUIT           43.0   19.1069    0.0130
  P-I1-37-31-27   I1-37-31-27     I5-37-30-12     CONDUIT           73.0    3.4399    0.0130
  P-I1-37-31-29   I1-37-31-29     J1-37-30-2-B    CONDUIT           38.6   27.4064    0.0130
  P-I1-37-31-30   I1-37-31-30     J1-37-30-2-B    CONDUIT           22.9   51.1266    0.0130
  P-I1-37-31-41-1 I1-37-31-41-1   J1-37-31-41-2   CONDUIT           11.3  398.9433    0.0130
  P-I1-37-31-42-2 I1-37-31-42-2   J1-37-31-42     CONDUIT           27.4   26.7478    0.0130
  P-I1-37-31-47-1 I1-37-31-47-1   J1-37-31-47-2   CONDUIT           16.4   99.8665    0.0130
  P-I1-37-31-48-2 I1-37-31-48-2   J1-37-31-48-1   CONDUIT           20.5   77.4781    0.0130
  P-I1-37-31-49-1 I1-37-31-49-1   J1-37-31-49-2   CONDUIT           15.7  178.3949    0.0130
  P-I1-37-31-49-3 I1-37-31-49-3   J1-37-31-49-2   CONDUIT           30.4   50.5798    0.0130
  P-I1-37-32-33-1 I1-37-32-33-1   I5-37-32-33     CONDUIT           57.7    2.0787    0.0130
  P-I1-37-32-37   I1-37-32-37     J1-37-32-29-A   CONDUIT           66.0   19.4295    0.0130
  P-I1-37-32-38   I1-37-32-38     I1-37-32-37     CONDUIT           32.0    3.1265    0.0130
  P-I1-37-32-39   I1-37-32-39     J1-37-32-35-B   CONDUIT           42.0   26.3982    0.0130
  P-I1-37-32-40   I1-37-32-40     J1-37-32-35-D   CONDUIT           40.1   24.6714    0.0130
  P-I1-37-32-41   I4-37-32-41     J1-37-32-29-B   CONDUIT           45.0   41.2503    0.0130
  P-I1-37-32-42   I1-37-32-42     J1-36-31-1-B    CONDUIT           42.8    0.2806    0.0130
  P-I1-37-32-43   I1-37-32-43     J1-37-31-46-A   CONDUIT           24.1   55.3447    0.0130
  P-I1-37-32-44   I4-37-32-44     J1-37-32-30-A   CONDUIT           43.5   43.1077    0.0130
  P-I1-37-32-45   I4-37-32-45     I5-37-32-30     CONDUIT           44.0   36.4729    0.0130
  P-I1-37-32-52-1 I1-37-32-52-1   J1-37-32-52-2   CONDUIT           42.1   41.4716    0.0130
  P-I1-37-32-53   I1-37-32-53     J1-37-31-1-A    CONDUIT           10.0  131.1000    0.0130
  P-I1-37-32-54   I2-37-32-54     I3-37-32-49     CONDUIT          133.0   15.5130    0.0130
  P-I1-37-32-55   I1-37-32-55     I1-37-32-56     CONDUIT           36.0    1.6382    0.0130
  P-I1-37-32-56   I1-37-32-56     J1-37-32-61-A   CONDUIT           70.0   33.4908    0.0130
  P-I1-37-32-57   I1-37-32-57     I2-37-32-35-B   CONDUIT           26.0    0.0100    0.0130
  P-I1-37-32-59   I1-37-32-59     J1-37-32-32-B   CONDUIT           48.8   25.0769    0.0130
  P-I1-37-32-60   I4-37-32-60     J1-37-32-35-A   CONDUIT           42.0   46.8230    0.0130
  P-I1-38-30-12   I1-38-30-12     J1-38-30-6-A    CONDUIT           27.9   21.4061    0.0130
  P-I1-38-30-13   I1-38-30-13     J1-38-30-5      CONDUIT           15.4   78.3675    0.0130
  P-I1-38-30-14   I1-38-30-14     I5-38-30-6      CONDUIT           27.8   24.2829    0.0130
  P-I1-38-31-31   I1-38-31-31     I1-37-31-27     CONDUIT           45.0   11.5881    0.0130
  P-I1-38-32-41   I2-38-32-41     I1-38-32-42     CONDUIT           29.0    2.4835    0.0130
  P-I1-38-32-42   I1-38-32-42     I1-37-32-33-1   CONDUIT           61.3    2.7757    0.0130
  P-I2-35-32-52   I2-35-32-52     O-35-32-35-A    CONDUIT           98.5    9.4840    0.0130
  P-I2-35-32-53   I2-35-32-53     I2-35-32-52     CONDUIT           38.7    2.5875    0.0130
  P-I2-35-32-62   I2-35-32-62     I2-35-32-63     CONDUIT           29.0    2.7578    0.0130
  P-I2-35-32-63   I2-35-32-63     J1-35-32-83     CONDUIT           86.6    1.1545    0.0130
  P-I2-35-32-64   I2-35-32-64     O-35-32-46-B    CONDUIT           86.9   13.5938    0.0130
  P-I2-35-32-74   I2-35-32-74     J1-35-32-87     CONDUIT          107.3    1.6772    0.0130
  P-I2-35-32-75   I2-35-32-75     I2-35-32-53     CONDUIT           50.8    1.9704    0.0130
  P-I2-36-30-38   I2-36-30-38     I2-36-30-39     CONDUIT           42.6    1.9722    0.0130
  P-I2-36-30-39   I2-36-30-39     O-36-30-106     CONDUIT           84.5    6.6299    0.0130
  P-I2-36-30-40   I2-36-30-40     I2-36-30-41     CONDUIT           60.4    1.6570    0.0130
  P-I2-36-30-41   I2-36-30-41     O-36-30-1       CONDUIT          111.1    9.1262    0.0130
  P-I2-36-30-46   I2-36-30-46     O-36-30-10      CONDUIT           85.8   12.6928    0.0130
  P-I2-36-30-47   I2-36-30-47     I2-36-30-46     CONDUIT           95.0    1.5790    0.0130
  P-I2-36-30-49   I2-36-30-49     O-36-30-11      CONDUIT           73.4   15.5830    0.0130
  P-I2-36-30-50   I2-36-30-50     J1-36-30-29-A   CONDUIT           34.0    1.4707    0.0130
  P-I2-36-30-71   I2-36-30-71     J1-36-30-29-A   CONDUIT          175.5    0.6837    0.0130
  P-I2-36-31-30   I2-36-31-30     J1-37-30-17-B   CONDUIT           75.4   14.7958    0.0130
  P-I2-36-31-31   I2-36-31-31     J1-37-31-12-B   CONDUIT           53.6   15.4778    0.0130
  P-I2-36-31-32   I2-36-31-32     I5-37-31-6      CONDUIT           52.0    9.0155    0.0130
  P-I2-36-31-36   I2-36-31-36     I2-36-31-37     CONDUIT           46.0    1.9569    0.0130
  P-I2-36-31-37   I2-36-31-37     O-35-31-9       CONDUIT          118.5    9.3253    0.0130
  P-I2-36-31-50   I2-36-31-50     O-36-31-11      CONDUIT          121.8    8.8175    0.0130
  P-I2-36-31-53   I2-36-31-53     I1-36-31-46     CONDUIT           54.6    2.9333    0.0130
  P-I2-36-31-55   I2-36-31-55     O-36-31-14      CONDUIT          162.0    7.8024    0.0130
  P-I2-37-31-17   I2-37-31-17     J1-37-30-17-B   CONDUIT           47.0   22.5475    0.0130
  P-I2-37-31-18   I2-37-31-18     J1-37-31-12-B   CONDUIT           43.5   12.0169    0.0130
  P-I2-37-31-19   I2-37-31-19     J1-37-31-5-A    CONDUIT           45.5    3.8931    0.0130
  P-I2-37-31-20   I2-37-31-20     J1-37-31-6-A    CONDUIT           42.5   10.5285    0.0130
  P-I2-37-31-21   I2-37-31-21     I5-37-31-7      CONDUIT           42.0   12.5744    0.0130
  P-I2-37-32-35-B I2-37-32-35-B   I5-37-32-35     CONDUIT           42.8   34.8639    0.0130
  P-I3-36-31-165  I3-36-31-165    J1-36-31-165-O  CONDUIT            5.0  258.4000    0.0130
  P-I3-36-31-167  I3-36-31-167    J1-36-31-183-A  CONDUIT            5.0  257.5697    0.0130
  P-I3-36-31-168  I3-36-31-168    J1-36-31-183-B  CONDUIT            5.0  264.2000    0.0130
  P-I3-36-31-171  I3-36-31-171    J1-36-31-148-A  CONDUIT            5.0  262.8000    0.0130
  P-I3-36-31-173  I3-36-31-173    J1-36-31-148-B  CONDUIT            5.0  259.4000    0.0130
  P-I3-37-31-24   I3-37-31-24     J1-37-31-10-A   CONDUIT           45.0   17.0886    0.0130
  P-I3-37-31-28   I3-37-31-28     J1-37-31-32     CONDUIT           29.0   38.1634    0.0130
  P-I3-37-31-42-3 I3-37-31-42-3   I1-37-31-42-2   CONDUIT           21.3   10.3743    0.0130
  P-I3-37-32-46   I4-37-32-46     I5-37-32-36     CONDUIT           52.0   33.4527    0.0130
  P-I3-37-32-48   I3-37-32-48     J1-37-32-6-A    CONDUIT          117.5    2.6986    0.0130
  P-I3-37-32-49   I3-37-32-49     I3-37-32-50     CONDUIT          299.6    0.1902    0.0130
  P-I3-37-32-50   I3-37-32-50     J1-37-32-1      CONDUIT          252.0    0.5991    0.0130
  P-I3-37-32-51   I3-37-32-51     J1-37-32-2      CONDUIT          135.0    2.1040    0.0130
  P-I3-37-32-52   I3-37-32-52     I5-37-32-28     CONDUIT          208.0    0.8173    0.0130
  P-I3-38-32-2    J3-38-32-2      I5-38-32-27     CONDUIT          373.9    0.0856    0.0130
  P-I3-38-32-36   I3-38-32-36     I5-38-32-26     CONDUIT           33.6   20.5074    0.0130
  P-I3-38-32-37   I3-38-32-37     J1-38-32-14     CONDUIT          236.2    5.9216    0.0130
  P-I3-38-32-38   J3-38-32-38     I5-38-32-27     CONDUIT          154.1    3.9090    0.0130
  P-I4-37-31-15   I3-37-31-15     J1-37-30-31-B   CONDUIT           46.0   13.1559    0.0130
  P-I4-37-32-26-1 I4-37-32-26-1   J1-37-32-26     CONDUIT          103.1    5.3417    0.0130
  P-I5-35-32-14-A I5-35-32-14-A   J1-35-32-14     CONDUIT          315.0    1.0000    0.0130
  P-I5-35-32-34   I5-35-32-34     O-35-31-23      CONDUIT          130.6    0.0153    0.0130
  P-I5-35-32-93   J1-35-32-34-A   I5-35-32-93     CONDUIT           54.2    0.3324    0.0130
  P-I5-36-30-27   I5-36-30-27     J1-36-30-28-A   CONDUIT           27.7    0.4332    0.0130
  P-I5-36-30-28a  I5-36-30-28     I5-36-30-31     CONDUIT           40.0    0.3750    0.0130
  P-I5-36-30-28b  I5-36-30-28     O-36-30-96      CONDUIT          115.2    0.9807    0.0130
  P-I5-36-30-30   I5-36-30-30     J1-36-30-32-A   CONDUIT          420.2    0.6688    0.0130
  P-I5-36-30-31   I5-36-30-31     O-36-30-67      CONDUIT          110.4    0.8874    0.0130
  P-I5-36-30-32   I5-36-30-32     J1-36-30-27-A   CONDUIT           61.5    0.1951    0.0130
  P-I5-36-31-1    I5-36-31-1      J1-36-31-64     CONDUIT           51.8    0.4439    0.0130
  P-I5-36-31-134  J1-36-31-134-A  I5-36-31-134    CONDUIT           19.4    3.2575    0.0130
  P-I5-36-31-140  I5-36-31-140    J1-36-31-134-C  CONDUIT           35.9   35.2226    0.0130
  P-I5-36-31-148  I5-36-31-148    J1-36-31-165-O  CONDUIT           41.0    0.3418    0.0130
  P-I5-36-31-149  I5-36-31-149    J1-36-31-183    CONDUIT           56.9   21.5897    0.0130
  P-I5-36-31-170  I5-36-31-170    J1-36-31-148-A  CONDUIT          115.0    0.3478    0.0130
  P-I5-36-31-49   I5-36-31-49     J1-36-31-48     CONDUIT           36.0    2.2228    0.0130
  P-I5-36-31-74   I5-36-31-74     J1-36-31-26-A   CONDUIT           12.3    0.1630    0.0130
  P-I5-36-31-74-1 I5-36-31-74-1   I5-36-31-74     CONDUIT           71.3    0.1403    0.0130
  P-I5-36-32-55   I5-36-32-55     J1-36-32-24-A   CONDUIT           59.4    1.7668    0.0130
  P-I5-36-32-61   I5-36-32-61     J1-36-32-55-A   CONDUIT          603.9    0.5796    0.0130
  P-I5-36-32-65   I5-36-32-65     J1-36-32-61-A   CONDUIT          510.1    0.4431    0.0130
  P-I5-37-30-10   I5-37-30-10     J1-37-30-9-A    CONDUIT          181.0    0.4807    0.0130
  P-I5-37-30-12   I5-37-30-12     J1-37-30-3-A    CONDUIT          277.4    0.4435    0.0130
  P-I5-37-30-2    J5-37-30-2      I5-37-30-8      CONDUIT          746.0    0.6100    0.0130
  P-I5-37-30-314  I5-37-30-314    J1-37-31-32     CONDUIT          446.4    0.4368    0.0130
  P-I5-37-30-8    I5-37-30-8      J1-37-30-29     CONDUIT          170.5    0.8269    0.0130
  P-I5-37-30-9    I5-37-30-9      J1-37-30-31     CONDUIT          310.4    0.6476    0.0130
  P-I5-37-31-10   I5-37-31-10     J1-37-31-2      CONDUIT          325.0    0.8246    0.0130
  P-I5-37-31-12   I5-37-31-12     J1-37-30-17-B   CONDUIT          110.0    1.9908    0.0130
  P-I5-37-31-3a   I5-37-31-3      J1-37-31-43     CONDUIT          100.6    0.8546    0.0130
  P-I5-37-31-3b   I5-37-31-3      I5-36-31-1      CONDUIT           72.0    1.4166    0.0130
  P-I5-37-31-47   I5-37-31-47     J1-37-31-47-2   CONDUIT          138.3    0.1013    0.0130
  P-I5-37-31-5    I5-37-31-5      J1-37-31-12-B   CONDUIT          146.4    2.7536    0.0130
  P-I5-37-31-50   I5-37-31-50     J1-37-31-49-2   CONDUIT          147.4    0.1086    0.0130
  P-I5-37-31-6    I5-37-31-6      J1-37-31-5-A    CONDUIT           46.5    0.6660    0.0130
  P-I5-37-31-7    I5-37-31-7      J1-37-31-6-A    CONDUIT          178.5    0.8123    0.0130
  P-I5-37-31-9    I5-37-31-9      J1-36-31-62-A   CONDUIT           82.7    0.8342    0.0130
  P-I5-37-32-26   J1-37-32-26     J1-37-31-1-A    CONDUIT           18.5    0.1080    0.0130
  P-I5-37-32-27a  I5-37-32-27     J1-37-32-3      CONDUIT           50.8    0.2956    0.0130
  P-I5-37-32-27b  I5-37-32-27     J1-37-32-6-A    CONDUIT           23.5    0.0851    0.0130
  P-I5-37-32-28   I5-37-32-28     J1-37-32-3      CONDUIT          162.6    0.9839    0.0130
  P-I5-37-32-29   I5-37-32-29     J1-36-31-1-B    CONDUIT          375.8    0.1144    0.0130
  P-I5-37-32-30   I5-37-32-30     I5-37-32-36     CONDUIT          435.0    0.3793    0.0130
  P-I5-37-32-32   I5-37-32-32     J1-37-32-35-A   CONDUIT          219.4    0.1550    0.0130
  P-I5-37-32-33   I5-37-32-33     I3-37-32-51     CONDUIT          140.0   10.7029    0.0130
  P-I5-37-32-34a  I5-37-32-34     J1-37-32-2      CONDUIT          238.4    0.1132    0.0130
  P-I5-37-32-34b  I5-37-32-34     J1-37-32-1      CONDUIT          220.5    0.1134    0.0130
  P-I5-37-32-35   I5-37-32-35     J1-37-32-30-A   CONDUIT          322.1    0.1925    0.0130
  P-I5-37-32-36   I5-37-32-36     J1-37-32-29-A   CONDUIT          295.1    0.1084    0.0130
  P-I5-38-30-5    I5-38-30-5      J1-38-30-5      CONDUIT           21.8   48.6336    0.0130
  P-I5-38-30-6    I5-38-30-6      I5-37-30-12     CONDUIT           85.4    2.1077    0.0130
  P-I5-38-32-14a  J1-38-32-14     J1-37-32-61-A   CONDUIT          203.7    0.7609    0.0130
  P-I5-38-32-14b  J1-38-32-14     J1-37-32-62     CONDUIT          302.4    0.6349    0.0130
  P-I5-38-32-26   I5-38-32-26     J1-38-32-14     CONDUIT          552.9    0.3093    0.0130
  P-I5-38-32-27   I5-38-32-27     I5-38-32-26     CONDUIT          398.7    0.3085    0.0130
  P-J1-35-32-14   J1-35-32-14     I5-35-32-93     CONDUIT           13.2    2.2699    0.0130
  P-J1-35-32-34-A J1-35-32-34-A   J1-35-32-34-B   CONDUIT           22.5    0.1333    0.0130
  P-J1-35-32-34-B J1-35-32-34-B   I5-35-32-34     CONDUIT          101.8    0.2161    0.0130
  P-J1-35-32-83   J1-35-32-83     O-35-32-42-B    CONDUIT           76.5   11.9805    0.0130
  P-J1-35-32-87   J1-35-32-87     O-35-32-46-C    CONDUIT           80.0   12.0858    0.0130
  P-J1-36-30-27-A J1-36-30-27-A   J1-36-30-27-B   CONDUIT          266.5    0.1876    0.0130
  P-J1-36-30-27-B J1-36-30-27-B   J1-36-30-27-C   CONDUIT          299.2    0.1905    0.0130
  P-J1-36-30-27-C J1-36-30-27-C   I5-36-30-27     CONDUIT           41.1    0.1946    0.0130
  P-J1-36-30-28-A J1-36-30-28-A   J1-36-30-28-B   CONDUIT           21.7    0.4608    0.0130
  P-J1-36-30-28-B J1-36-30-28-B   J1-36-30-28-C   CONDUIT           19.8    0.4040    0.0130
  P-J1-36-30-28-C J1-36-30-28-C   I5-36-30-28     CONDUIT          109.8    0.4462    0.0130
  P-J1-36-30-29-A J1-36-30-29-A   I2-36-30-49     CONDUIT          111.5    0.6278    0.0130
  P-J1-36-30-32-A J1-36-30-32-A   J1-36-30-32-B   CONDUIT           88.3    0.1925    0.0130
  P-J1-36-30-32-B J1-36-30-32-B   I5-36-30-32     CONDUIT           75.6    0.1588    0.0130
  P-J1-36-31-1-B  J1-36-31-1-B    I5-36-31-1      CONDUIT           75.4    0.7695    0.0130
  P-J1-36-31-134-AJ1-36-31-134-A  J1-36-31-134-C  CONDUIT          186.7    0.1499    0.0130
  P-J1-36-31-134-CJ1-36-31-134-C  J1-36-31-134-D  CONDUIT          154.6    0.1487    0.0130
  P-J1-36-31-134-DJ1-36-31-134-D  J1-36-31-134-E  CONDUIT           60.2    0.1661    0.0130
  P-J1-36-31-134-EJ1-36-31-134-E  I5-36-31-74-1   CONDUIT           18.1    0.1107    0.0130
  P-J1-36-31-148-AJ1-36-31-148-A  J1-36-31-148-B  CONDUIT          305.0    0.3508    0.0130
  P-J1-36-31-148-BJ1-36-31-148-B  I5-36-31-148    CONDUIT          240.0    0.3500    0.0130
  P-J1-36-31-165-OJ1-36-31-165-O  J1-36-31-183-A  CONDUIT          150.1    0.3465    0.0130
  P-J1-36-31-183  J1-36-31-183    I5-36-31-134    CONDUIT           29.3    2.5947    0.0130
  P-J1-36-31-183-AJ1-36-31-183-A  J1-36-31-183-B  CONDUIT          150.0    0.3534    0.0130
  P-J1-36-31-183-BJ1-36-31-183-B  J1-36-31-183-C  CONDUIT           18.7    0.3737    0.0130
  P-J1-36-31-183-CJ1-36-31-183-C  J1-36-31-183    CONDUIT          271.4    0.3501    0.0130
  P-J1-36-31-26-A J1-36-31-26-A   J1-36-31-26-B   CONDUIT            5.0    0.2000    0.0130
  P-J1-36-31-26-B J1-36-31-26-B   O-36-31-13      CONDUIT          196.1    0.1020    0.0130
  P-J1-36-31-48   J1-36-31-48     O-36-31-28      CONDUIT          132.1   12.4206    0.0130
  P-J1-36-31-62   J1-36-31-62     I5-36-31-170    CONDUIT          236.7    0.3549    0.0130
  P-J1-36-31-62-A J1-36-31-62-A   J1-36-31-62     CONDUIT            9.0    0.7761    0.0130
  P-J1-36-31-64   J1-36-31-64     J1-36-32-65-A   CONDUIT          260.3    0.4417    0.0130
  P-J1-36-32-24-A J1-36-32-24-A   J1-36-32-24-B   CONDUIT          285.9    0.1504    0.0130
  P-J1-36-32-24-B J1-36-32-24-B   J1-36-32-24-C   CONDUIT           28.8    0.1736    0.0130
  P-J1-36-32-24-C J1-36-32-24-C   J1-36-32-24-D   CONDUIT           56.1    0.1427    0.0130
  P-J1-36-32-24-D J1-36-32-24-D   J1-35-32-14     CONDUIT          238.2    0.1553    0.0130
  P-J1-36-32-55-A J1-36-32-55-A   I5-36-32-55     CONDUIT           28.9    0.4846    0.0130
  P-J1-36-32-61-A J1-36-32-61-A   J1-36-32-61-B   CONDUIT           10.2    0.3941    0.0130
  P-J1-36-32-61-B J1-36-32-61-B   I5-36-32-61     CONDUIT           49.9    0.4413    0.0130
  P-J1-36-32-65-A J1-36-32-65-A   J1-36-32-65-B   CONDUIT          356.1    0.4409    0.0130
  P-J1-36-32-65-B J1-36-32-65-B   I5-36-32-65     CONDUIT           70.1    0.4281    0.0130
  P-J1-37-30-17-B J1-37-30-17-B   J1-37-30-31     CONDUIT           77.3    1.5536    0.0130
  P-J1-37-30-2-B  J1-37-30-2-B    J5-37-30-2      CONDUIT          100.0    0.8199    0.0130
  P-J1-37-30-29   J1-37-30-29     J1-37-30-31-A   CONDUIT           43.5    0.1839    0.0130
  P-J1-37-30-3-A  J1-37-30-3-A    J1-37-30-3-C    CONDUIT          260.6    0.4528    0.0130
  P-J1-37-30-3-C  J1-37-30-3-C    I5-37-30-314    CONDUIT          114.0    0.4210    0.0130
  P-J1-37-30-31   J1-37-30-31     I5-36-30-30     CONDUIT           72.5    3.0355    0.0130
  P-J1-37-30-31-A J1-37-30-31-A   J1-37-30-31-B   CONDUIT           11.0    0.1818    0.0130
  P-J1-37-30-31-B J1-37-30-31-B   J1-37-30-31-D   CONDUIT          264.0    0.1780    0.0130
  P-J1-37-30-31-D J1-37-30-31-D   J1-37-30-31     CONDUIT           85.0    0.1647    0.0130
  P-J1-37-30-9-A  J1-37-30-9-A    I5-37-30-9      CONDUIT           95.3    1.1863    0.0130
  P-J1-37-31-1-A  J1-37-31-1-A    J1-37-32-52-2   CONDUIT           27.4    0.1093    0.0130
  P-J1-37-31-10-A J1-37-31-10-A   I5-37-31-10     CONDUIT          167.5    0.8358    0.0130
  P-J1-37-31-12-B J1-37-31-12-B   I5-37-31-12     CONDUIT          184.1    1.4612    0.0130
  P-J1-37-31-2    J1-37-31-2      J1-37-31-9-A    CONDUIT          164.0    0.8780    0.0130
  P-J1-37-31-32   J1-37-31-32     J5-37-30-2      CONDUIT          191.4    0.4127    0.0130
  P-J1-37-31-41-2 J1-37-31-41-2   I5-37-31-3      CONDUIT          396.1    0.3408    0.0130
  P-J1-37-31-42   J1-37-31-42     J1-37-31-41-2   CONDUIT           37.5    0.5599    0.0130
  P-J1-37-31-43   J1-37-31-43     J1-37-31-10-A   CONDUIT          407.0    0.8207    0.0130
  P-J1-37-31-46-A J1-37-31-46-A   J1-37-31-42     CONDUIT          305.6    0.2782    0.0130
  P-J1-37-31-47-2 J1-37-31-47-2   J1-37-31-46-A   CONDUIT           51.6    0.1163    0.0130
  P-J1-37-31-48-1 J1-37-31-48-1   I5-37-31-47     CONDUIT          193.3    0.1138    0.0130
  P-J1-37-31-49-2 J1-37-31-49-2   J1-37-31-48-1   CONDUIT          165.8    0.1086    0.0130
  P-J1-37-31-5-A  J1-37-31-5-A    I5-37-31-5      CONDUIT          259.3    0.0100    0.0130
  P-J1-37-31-6-A  J1-37-31-6-A    I5-37-31-6      CONDUIT          175.8    0.6370    0.0130
  P-J1-37-31-9-A  J1-37-31-9-A    I5-37-31-9      CONDUIT          105.0    0.8380    0.0130
  P-J1-37-32-1    J1-37-32-1      I5-37-32-27     CONDUIT          313.7    0.1052    0.0130
  P-J1-37-32-2    J1-37-32-2      I5-37-32-27     CONDUIT          295.1    0.1051    0.0130
  P-J1-37-32-29-A J1-37-32-29-A   J1-37-32-29-B   CONDUIT           23.8    0.1263    0.0130
  P-J1-37-32-29-B J1-37-32-29-B   I5-37-32-29     CONDUIT          179.7    0.1614    0.0130
  P-J1-37-32-3    J1-37-32-3      J1-37-32-26     CONDUIT          458.1    0.0873    0.0130
  P-J1-37-32-30-A J1-37-32-30-A   I5-37-32-30     CONDUIT          286.5    0.1466    0.0130
  P-J1-37-32-32-B J1-37-32-32-B   I5-37-32-32     CONDUIT          135.0    2.5340    0.0130
  P-J1-37-32-35-A J1-37-32-35-A   J1-37-32-35-B   CONDUIT          152.0    0.1513    0.0130
  P-J1-37-32-35-B J1-37-32-35-B   J1-37-32-35-D   CONDUIT          250.9    0.0598    0.0130
  P-J1-37-32-35-D J1-37-32-35-D   I5-37-32-35     CONDUIT           33.0    0.3030    0.0130
  P-J1-37-32-52-2 J1-37-32-52-2   I5-37-31-50     CONDUIT          481.7    0.0249    0.0130
  P-J1-37-32-6-A  J1-37-32-6-A    J1-37-32-26     CONDUIT          486.1    0.1090    0.0130
  P-J1-37-32-61   J1-37-32-61     I5-37-32-34     CONDUIT          164.5    0.1155    0.0130
  P-J1-37-32-61-A J1-37-32-61-A   J1-37-32-61     CONDUIT           97.0    0.3813    0.0130
  P-J1-37-32-62   J1-37-32-62     I5-37-32-34     CONDUIT          170.6    0.1114    0.0130
  P-J1-38-30-5    J1-38-30-5      J1-38-30-6-A    CONDUIT          221.5    0.4921    0.0130
  P-J1-38-30-6-A  J1-38-30-6-A    I5-38-30-6      CONDUIT          127.3    1.4460    0.0130
  CPump           Ids1            Cistern1        TYPE4 PUMP  
  orifice1        Cistern1        Cistern2        ORIFICE     
  orifice2        Cistern2        Cistern3        ORIFICE     
  weir1           Cistern3        Ocistern        WEIR        
  
  
  *********************
  Cross Section Summary
  *********************
                                        Full     Full     Hyd.     Max.   No. of     Full
  Conduit          Shape               Depth     Area     Rad.    Width  Barrels     Flow
  ---------------------------------------------------------------------------------------
  DS2-1            CIRCULAR             1.00     0.79     0.25     1.00     1        3.27
  DS3-2            CIRCULAR             1.00     0.79     0.25     1.00     1        2.71
  DS4-3            CIRCULAR             1.00     0.79     0.25     1.00     1        2.94
  P-I1-35-31-18    CIRCULAR             1.20     1.13     0.30     1.20     1       14.28
  P-I1-35-32-54    CIRCULAR             1.20     1.13     0.30     1.20     1       31.89
  P-I1-36-30-36    CIRCULAR             1.20     1.13     0.30     1.20     1       16.27
  P-I1-36-30-44    CIRCULAR             1.20     1.13     0.30     1.20     1       33.82
  P-I1-36-30-45    CIRCULAR             1.20     1.13     0.30     1.20     1       34.77
  P-I1-36-31-133   CIRCULAR             1.20     1.13     0.30     1.20     1       36.27
  P-I1-36-31-136   CIRCULAR             1.20     1.13     0.30     1.20     1      102.25
  P-I1-36-31-141   CIRCULAR             1.20     1.13     0.30     1.20     1       49.93
  P-I1-36-31-146   CIRCULAR             1.20     1.13     0.30     1.20     1       69.07
  P-I1-36-31-151   CIRCULAR             1.20     1.13     0.30     1.20     1       18.75
  P-I1-36-31-155   CIRCULAR             1.20     1.13     0.30     1.20     1       23.45
  P-I1-36-31-156   CIRCULAR             1.20     1.13     0.30     1.20     1       12.18
  P-I1-36-31-176   CIRCULAR             1.20     1.13     0.30     1.20     1       36.44
  P-I1-36-31-177   CIRCULAR             1.20     1.13     0.30     1.20     1       30.07
  P-I1-36-31-179   CIRCULAR             1.20     1.13     0.30     1.20     1       34.08
  P-I1-36-31-180   CIRCULAR             1.20     1.13     0.30     1.20     1       36.26
  P-I1-36-31-181   CIRCULAR             1.20     1.13     0.30     1.20     1       44.47
  P-I1-36-31-33    CIRCULAR             1.20     1.13     0.30     1.20     1       31.06
  P-I1-36-31-34    CIRCULAR             1.20     1.13     0.30     1.20     1       95.62
  P-I1-36-31-35    CIRCULAR             1.20     1.13     0.30     1.20     1       66.46
  P-I1-36-31-40    CIRCULAR             1.20     1.13     0.30     1.20     1       68.73
  P-I1-36-31-41    CIRCULAR             1.20     1.13     0.30     1.20     1       30.54
  P-I1-36-31-42    CIRCULAR             1.20     1.13     0.30     1.20     1       64.99
  P-I1-36-31-43    CIRCULAR             1.00     0.79     0.25     1.00     1       40.92
  P-I1-36-31-44    CIRCULAR             1.20     1.13     0.30     1.20     1       18.60
  P-I1-36-31-45    CIRCULAR             1.20     1.13     0.30     1.20     1        5.93
  P-I1-36-31-46    CIRCULAR             1.20     1.13     0.30     1.20     1       22.01
  P-I1-36-31-51    CIRCULAR             1.20     1.13     0.30     1.20     1       47.48
  P-I1-36-31-52    CIRCULAR             1.20     1.13     0.30     1.20     1       64.41
  P-I1-36-32-12    CIRCULAR             1.20     1.13     0.30     1.20     1       31.07
  P-I1-36-32-13    CIRCULAR             1.20     1.13     0.30     1.20     1        2.21
  P-I1-36-32-14    CIRCULAR             1.20     1.13     0.30     1.20     1       28.86
  P-I1-36-32-15    CIRCULAR             1.20     1.13     0.30     1.20     1       24.27
  P-I1-36-32-57    CIRCULAR             1.20     1.13     0.30     1.20     1       80.42
  P-I1-36-32-59    CIRCULAR             1.20     1.13     0.30     1.20     1       62.90
  P-I1-36-32-63    CIRCULAR             1.20     1.13     0.30     1.20     1       60.08
  P-I1-36-32-66    CIRCULAR             1.20     1.13     0.30     1.20     1       60.90
  P-I1-36-32-70    CIRCULAR             1.20     1.13     0.30     1.20     1       35.06
  P-I1-37-30-18    CIRCULAR             1.20     1.13     0.30     1.20     1       40.30
  P-I1-37-30-19    CIRCULAR             1.20     1.13     0.30     1.20     1       27.66
  P-I1-37-30-20    CIRCULAR             1.20     1.13     0.30     1.20     1       10.50
  P-I1-37-30-21    CIRCULAR             1.20     1.13     0.30     1.20     1       10.50
  P-I1-37-30-22    CIRCULAR             1.20     1.13     0.30     1.20     1       35.03
  P-I1-37-30-23    CIRCULAR             1.20     1.13     0.30     1.20     1       38.93
  P-I1-37-31-13    CIRCULAR             1.20     1.13     0.30     1.20     1       36.25
  P-I1-37-31-16    CIRCULAR             1.20     1.13     0.30     1.20     1       23.42
  P-I1-37-31-22    CIRCULAR             1.20     1.13     0.30     1.20     1       25.83
  P-I1-37-31-23    CIRCULAR             1.20     1.13     0.30     1.20     1       26.28
  P-I1-37-31-25    CIRCULAR             1.20     1.13     0.30     1.20     1       26.23
  P-I1-37-31-26    CIRCULAR             1.50     1.77     0.38     1.50     1       45.92
  P-I1-37-31-27    CIRCULAR             1.20     1.13     0.30     1.20     1       10.75
  P-I1-37-31-29    CIRCULAR             1.20     1.13     0.30     1.20     1       30.33
  P-I1-37-31-30    CIRCULAR             1.20     1.13     0.30     1.20     1       41.43
  P-I1-37-31-41-1  CIRCULAR             1.20     1.13     0.30     1.20     1      115.72
  P-I1-37-31-42-2  CIRCULAR             1.50     1.77     0.38     1.50     1       54.33
  P-I1-37-31-47-1  CIRCULAR             1.20     1.13     0.30     1.20     1       57.90
  P-I1-37-31-48-2  CIRCULAR             1.20     1.13     0.30     1.20     1       51.00
  P-I1-37-31-49-1  CIRCULAR             1.20     1.13     0.30     1.20     1       77.38
  P-I1-37-31-49-3  CIRCULAR             1.20     1.13     0.30     1.20     1       41.20
  P-I1-37-32-33-1  CIRCULAR             1.50     1.77     0.38     1.50     1       15.14
  P-I1-37-32-37    CIRCULAR             1.20     1.13     0.30     1.20     1       25.54
  P-I1-37-32-38    CIRCULAR             1.20     1.13     0.30     1.20     1       10.24
  P-I1-37-32-39    CIRCULAR             1.20     1.13     0.30     1.20     1       29.77
  P-I1-37-32-40    CIRCULAR             1.20     1.13     0.30     1.20     1       28.78
  P-I1-37-32-41    CIRCULAR             1.20     1.13     0.30     1.20     1       37.21
  P-I1-37-32-42    CIRCULAR             1.20     1.13     0.30     1.20     1        3.07
  P-I1-37-32-43    CIRCULAR             1.20     1.13     0.30     1.20     1       43.10
  P-I1-37-32-44    CIRCULAR             1.20     1.13     0.30     1.20     1       38.04
  P-I1-37-32-45    CIRCULAR             1.20     1.13     0.30     1.20     1       34.99
  P-I1-37-32-52-1  CIRCULAR             1.20     1.13     0.30     1.20     1       37.31
  P-I1-37-32-53    CIRCULAR             1.20     1.13     0.30     1.20     1       66.34
  P-I1-37-32-54    CIRCULAR             1.50     1.77     0.38     1.50     1       41.37
  P-I1-37-32-55    CIRCULAR             1.50     1.77     0.38     1.50     1       13.44
  P-I1-37-32-56    CIRCULAR             1.50     1.77     0.38     1.50     1       60.79
  P-I1-37-32-57    CIRCULAR             1.20     1.13     0.30     1.20     1        0.58
  P-I1-37-32-59    CIRCULAR             1.20     1.13     0.30     1.20     1       29.01
  P-I1-37-32-60    CIRCULAR             1.20     1.13     0.30     1.20     1       39.64
  P-I1-38-30-12    CIRCULAR             1.20     1.13     0.30     1.20     1       26.80
  P-I1-38-30-13    CIRCULAR             1.20     1.13     0.30     1.20     1       51.29
  P-I1-38-30-14    CIRCULAR             1.20     1.13     0.30     1.20     1       28.55
  P-I1-38-31-31    CIRCULAR             1.20     1.13     0.30     1.20     1       19.72
  P-I1-38-32-41    CIRCULAR             1.50     1.77     0.38     1.50     1       16.55
  P-I1-38-32-42    CIRCULAR             1.50     1.77     0.38     1.50     1       17.50
  P-I2-35-32-52    CIRCULAR             1.20     1.13     0.30     1.20     1       17.84
  P-I2-35-32-53    CIRCULAR             1.20     1.13     0.30     1.20     1        9.32
  P-I2-35-32-62    CIRCULAR             1.20     1.13     0.30     1.20     1        9.62
  P-I2-35-32-63    CIRCULAR             1.20     1.13     0.30     1.20     1        6.23
  P-I2-35-32-64    CIRCULAR             1.20     1.13     0.30     1.20     1       21.36
  P-I2-35-32-74    CIRCULAR             1.20     1.13     0.30     1.20     1        7.50
  P-I2-35-32-75    CIRCULAR             1.20     1.13     0.30     1.20     1        8.13
  P-I2-36-30-38    CIRCULAR             1.20     1.13     0.30     1.20     1        8.14
  P-I2-36-30-39    CIRCULAR             1.20     1.13     0.30     1.20     1       14.92
  P-I2-36-30-40    CIRCULAR             1.20     1.13     0.30     1.20     1        7.46
  P-I2-36-30-41    CIRCULAR             1.20     1.13     0.30     1.20     1       17.50
  P-I2-36-30-46    CIRCULAR             1.20     1.13     0.30     1.20     1       20.64
  P-I2-36-30-47    CIRCULAR             1.20     1.13     0.30     1.20     1        7.28
  P-I2-36-30-49    CIRCULAR             1.20     1.13     0.30     1.20     1       22.87
  P-I2-36-30-50    CIRCULAR             1.20     1.13     0.30     1.20     1        7.03
  P-I2-36-30-71    CIRCULAR             1.50     1.77     0.38     1.50     1        8.69
  P-I2-36-31-30    CIRCULAR             1.20     1.13     0.30     1.20     1       22.28
  P-I2-36-31-31    CIRCULAR             1.20     1.13     0.30     1.20     1       22.79
  P-I2-36-31-32    CIRCULAR             1.20     1.13     0.30     1.20     1       17.40
  P-I2-36-31-36    CIRCULAR             1.20     1.13     0.30     1.20     1        8.10
  P-I2-36-31-37    CIRCULAR             1.20     1.13     0.30     1.20     1       17.69
  P-I2-36-31-50    CIRCULAR             1.20     1.13     0.30     1.20     1       17.20
  P-I2-36-31-53    CIRCULAR             1.20     1.13     0.30     1.20     1        9.92
  P-I2-36-31-55    CIRCULAR             1.20     1.13     0.30     1.20     1       16.18
  P-I2-37-31-17    CIRCULAR             1.20     1.13     0.30     1.20     1       27.51
  P-I2-37-31-18    CIRCULAR             1.20     1.13     0.30     1.20     1       20.08
  P-I2-37-31-19    CIRCULAR             1.20     1.13     0.30     1.20     1       11.43
  P-I2-37-31-20    CIRCULAR             1.20     1.13     0.30     1.20     1       18.80
  P-I2-37-31-21    CIRCULAR             1.20     1.13     0.30     1.20     1       20.54
  P-I2-37-32-35-B  CIRCULAR             2.00     3.14     0.50     2.00     1      133.58
  P-I3-36-31-165   CIRCULAR             1.20     1.13     0.30     1.20     1       93.13
  P-I3-36-31-167   CIRCULAR             1.20     1.13     0.30     1.20     1       92.98
  P-I3-36-31-168   CIRCULAR             1.20     1.13     0.30     1.20     1       94.17
  P-I3-36-31-171   CIRCULAR             1.20     1.13     0.30     1.20     1       93.92
  P-I3-36-31-173   CIRCULAR             1.20     1.13     0.30     1.20     1       93.31
  P-I3-37-31-24    CIRCULAR             1.20     1.13     0.30     1.20     1       23.95
  P-I3-37-31-28    CIRCULAR             1.20     1.13     0.30     1.20     1       35.79
  P-I3-37-31-42-3  CIRCULAR             1.50     1.77     0.38     1.50     1       33.83
  P-I3-37-32-46    CIRCULAR             1.20     1.13     0.30     1.20     1       33.51
  P-I3-37-32-48    CIRCULAR             1.50     1.77     0.38     1.50     1       17.26
  P-I3-37-32-49    CIRCULAR             1.50     1.77     0.38     1.50     1        4.58
  P-I3-37-32-50    CIRCULAR             1.50     1.77     0.38     1.50     1        8.13
  P-I3-37-32-51    CIRCULAR             1.50     1.77     0.38     1.50     1       15.24
  P-I3-37-32-52    CIRCULAR             1.50     1.77     0.38     1.50     1        9.50
  P-I3-38-32-2     CIRCULAR             6.00    28.27     1.50     6.00     1      123.89
  P-I3-38-32-36    CIRCULAR             1.50     1.77     0.38     1.50     1       47.57
  P-I3-38-32-37    CIRCULAR             1.50     1.77     0.38     1.50     1       25.56
  P-I3-38-32-38    CIRCULAR             1.50     1.77     0.38     1.50     1       20.77
  P-I4-37-31-15    CIRCULAR             1.20     1.13     0.30     1.20     1       21.01
  P-I4-37-32-26-1  CIRCULAR             4.00    12.57     1.00     4.00     1      331.99
  P-I5-35-32-14-A  CIRCULAR             1.50     1.77     0.38     1.50     1       10.50
  P-I5-35-32-34    CIRCULAR             8.50    56.75     2.13     8.50     1      132.67
  P-I5-35-32-93    CIRCULAR             8.50    56.75     2.13     8.50     1      618.07
  P-I5-36-30-27    CIRCULAR             7.00    38.48     1.75     7.00     1      420.47
  P-I5-36-30-28a   CIRCULAR             1.20     1.13     0.30     1.20     1        3.55
  P-I5-36-30-28b   CIRCULAR             7.00    38.48     1.75     7.00     1      632.64
  P-I5-36-30-30    CIRCULAR             7.00    38.48     1.75     7.00     1      522.43
  P-I5-36-30-31    CIRCULAR             1.20     1.13     0.30     1.20     1        5.46
  P-I5-36-30-32    CIRCULAR             7.00    38.48     1.75     7.00     1      282.17
  P-I5-36-31-1     CIRCULAR             7.00    38.48     1.75     7.00     1      425.64
  P-I5-36-31-134   CIRCULAR             7.00    38.48     1.75     7.00     1     1153.01
  P-I5-36-31-140   CIRCULAR             1.20     1.13     0.30     1.20     1       34.38
  P-I5-36-31-148   CIRCULAR             7.00    38.48     1.75     7.00     1      373.48
  P-I5-36-31-149   CIRCULAR             1.20     1.13     0.30     1.20     1       26.92
  P-I5-36-31-170   CIRCULAR             7.00    38.48     1.75     7.00     1      376.75
  P-I5-36-31-49    CIRCULAR             1.20     1.13     0.30     1.20     1        8.64
  P-I5-36-31-74    CIRCULAR             7.00    38.48     1.75     7.00     1      257.92
  P-I5-36-31-74-1  CIRCULAR             7.00    38.48     1.75     7.00     1      239.28
  P-I5-36-32-55    CIRCULAR             8.50    56.75     2.13     8.50     1     1425.05
  P-I5-36-32-61    CIRCULAR             7.50    44.18     1.88     7.50     1      584.57
  P-I5-36-32-65    CIRCULAR             7.00    38.48     1.75     7.00     1      425.24
  P-I5-37-30-10    CIRCULAR             1.70     2.27     0.42     1.70     1       10.17
  P-I5-37-30-12    CIRCULAR             5.00    19.63     1.25     5.00     1      173.44
  P-I5-37-30-2     CIRCULAR             5.00    19.63     1.25     5.00     1      203.40
  P-I5-37-30-314   CIRCULAR             5.00    19.63     1.25     5.00     1      172.13
  P-I5-37-30-8     CIRCULAR             5.00    19.63     1.25     5.00     1      236.83
  P-I5-37-30-9     CIRCULAR             1.70     2.27     0.42     1.70     1       11.80
  P-I5-37-31-10    CIRCULAR             7.00    38.48     1.75     7.00     1      580.10
  P-I5-37-31-12    CIRCULAR             1.50     1.77     0.38     1.50     1       14.82
  P-I5-37-31-3a    CIRCULAR             7.00    38.48     1.75     7.00     1      590.55
  P-I5-37-31-3b    CIRCULAR             7.00    38.48     1.75     7.00     1      760.35
  P-I5-37-31-47    CIRCULAR             9.00    63.62     2.25     9.00     1      397.32
  P-I5-37-31-5     CIRCULAR             1.50     1.77     0.38     1.50     1       17.43
  P-I5-37-31-50    CIRCULAR             9.00    63.62     2.25     9.00     1      411.41
  P-I5-37-31-6     CIRCULAR             1.50     1.77     0.38     1.50     1        8.57
  P-I5-37-31-7     CIRCULAR             1.50     1.77     0.38     1.50     1        9.47
  P-I5-37-31-9     CIRCULAR             7.00    38.48     1.75     7.00     1      583.46
  P-I5-37-32-26    CIRCULAR             9.00    63.62     2.25     9.00     1      410.44
  P-I5-37-32-27a   CIRCULAR             4.50    15.90     1.13     4.50     1      106.91
  P-I5-37-32-27b   CIRCULAR             4.50    15.90     1.13     4.50     1       57.37
  P-I5-37-32-28    CIRCULAR             1.50     1.77     0.38     1.50     1       10.42
  P-I5-37-32-29    CIRCULAR             6.00    28.27     1.50     6.00     1      143.25
  P-I5-37-32-30    CIRCULAR             5.00    19.63     1.25     5.00     1      160.40
  P-I5-37-32-32    CIRCULAR             5.00    19.63     1.25     5.00     1      102.53
  P-I5-37-32-33    CIRCULAR             1.50     1.77     0.38     1.50     1       34.37
  P-I5-37-32-34a   CIRCULAR             4.50    15.90     1.13     4.50     1       66.17
  P-I5-37-32-34b   CIRCULAR             4.50    15.90     1.13     4.50     1       66.22
  P-I5-37-32-35    CIRCULAR             5.00    19.63     1.25     5.00     1      114.27
  P-I5-37-32-36    CIRCULAR             6.00    28.27     1.50     6.00     1      139.47
  P-I5-38-30-5     CIRCULAR             1.20     1.13     0.30     1.20     1       40.40
  P-I5-38-30-6     CIRCULAR             2.50     4.91     0.63     2.50     1       59.55
  P-I5-38-32-14a   CIRCULAR             4.50    15.90     1.13     4.50     1      171.53
  P-I5-38-32-14b   CIRCULAR             4.50    15.90     1.13     4.50     1      156.69
  P-I5-38-32-26    CIRCULAR             6.00    28.27     1.50     6.00     1      235.53
  P-I5-38-32-27    CIRCULAR             6.00    28.27     1.50     6.00     1      235.24
  P-J1-35-32-14    CIRCULAR             8.50    56.75     2.13     8.50     1     1615.26
  P-J1-35-32-34-A  CIRCULAR             8.50    56.75     2.13     8.50     1      391.48
  P-J1-35-32-34-B  CIRCULAR             8.50    56.75     2.13     8.50     1      498.43
  P-J1-35-32-83    CIRCULAR             1.20     1.13     0.30     1.20     1       20.05
  P-J1-35-32-87    CIRCULAR             1.20     1.13     0.30     1.20     1       20.14
  P-J1-36-30-27-A  CIRCULAR             7.00    38.48     1.75     7.00     1      276.69
  P-J1-36-30-27-B  CIRCULAR             7.00    38.48     1.75     7.00     1      278.82
  P-J1-36-30-27-C  CIRCULAR             7.00    38.48     1.75     7.00     1      281.85
  P-J1-36-30-28-A  CIRCULAR             7.00    38.48     1.75     7.00     1      433.67
  P-J1-36-30-28-B  CIRCULAR             7.00    38.48     1.75     7.00     1      406.07
  P-J1-36-30-28-C  CIRCULAR             7.00    38.48     1.75     7.00     1      426.74
  P-J1-36-30-29-A  CIRCULAR             1.50     1.77     0.38     1.50     1        8.32
  P-J1-36-30-32-A  CIRCULAR             7.00    38.48     1.75     7.00     1      280.29
  P-J1-36-30-32-B  CIRCULAR             7.00    38.48     1.75     7.00     1      254.57
  P-J1-36-31-1-B   CIRCULAR             7.00    38.48     1.75     7.00     1      560.38
  P-J1-36-31-134-A CIRCULAR             7.00    38.48     1.75     7.00     1      247.37
  P-J1-36-31-134-C CIRCULAR             7.00    38.48     1.75     7.00     1      246.37
  P-J1-36-31-134-D CIRCULAR             7.00    38.48     1.75     7.00     1      260.35
  P-J1-36-31-134-E CIRCULAR             7.00    38.48     1.75     7.00     1      212.53
  P-J1-36-31-148-A CIRCULAR             7.00    38.48     1.75     7.00     1      378.36
  P-J1-36-31-148-B CIRCULAR             7.00    38.48     1.75     7.00     1      377.92
  P-J1-36-31-165-O CIRCULAR             7.00    38.48     1.75     7.00     1      376.05
  P-J1-36-31-183   CIRCULAR             7.00    38.48     1.75     7.00     1     1029.04
  P-J1-36-31-183-A CIRCULAR             7.00    38.48     1.75     7.00     1      379.79
  P-J1-36-31-183-B CIRCULAR             7.00    38.48     1.75     7.00     1      390.54
  P-J1-36-31-183-C CIRCULAR             7.00    38.48     1.75     7.00     1      377.97
  P-J1-36-31-26-A  CIRCULAR             7.00    38.48     1.75     7.00     1      285.69
  P-J1-36-31-26-B  CIRCULAR             7.00    38.48     1.75     7.00     1      204.03
  P-J1-36-31-48    CIRCULAR             1.20     1.13     0.30     1.20     1       20.42
  P-J1-36-31-62    CIRCULAR             7.00    38.48     1.75     7.00     1      380.60
  P-J1-36-31-62-A  CIRCULAR             7.00    38.48     1.75     7.00     1      562.78
  P-J1-36-31-64    CIRCULAR             7.00    38.48     1.75     7.00     1      424.59
  P-J1-36-32-24-A  CIRCULAR             8.50    56.75     2.13     8.50     1      415.78
  P-J1-36-32-24-B  CIRCULAR             8.50    56.75     2.13     8.50     1      446.72
  P-J1-36-32-24-C  CIRCULAR             8.50    56.75     2.13     8.50     1      405.01
  P-J1-36-32-24-D  CIRCULAR             8.50    56.75     2.13     8.50     1      422.55
  P-J1-36-32-55-A  CIRCULAR             7.50    44.18     1.88     7.50     1      534.54
  P-J1-36-32-61-A  CIRCULAR             7.00    38.48     1.75     7.00     1      401.04
  P-J1-36-32-61-B  CIRCULAR             7.00    38.48     1.75     7.00     1      424.39
  P-J1-36-32-65-A  CIRCULAR             7.00    38.48     1.75     7.00     1      424.18
  P-J1-36-32-65-B  CIRCULAR             7.00    38.48     1.75     7.00     1      418.01
  P-J1-37-30-17-B  CIRCULAR             1.50     1.77     0.38     1.50     1       13.09
  P-J1-37-30-2-B   CIRCULAR             4.00    12.57     1.00     4.00     1      130.07
  P-J1-37-30-29    CIRCULAR             5.00    19.63     1.25     5.00     1      111.69
  P-J1-37-30-3-A   CIRCULAR             5.00    19.63     1.25     5.00     1      175.26
  P-J1-37-30-3-C   CIRCULAR             5.00    19.63     1.25     5.00     1      168.98
  P-J1-37-30-31    CIRCULAR             5.00    19.63     1.25     5.00     1      453.76
  P-J1-37-30-31-A  CIRCULAR             5.00    19.63     1.25     5.00     1      111.05
  P-J1-37-30-31-B  CIRCULAR             5.00    19.63     1.25     5.00     1      109.88
  P-J1-37-30-31-D  CIRCULAR             5.00    19.63     1.25     5.00     1      105.69
  P-J1-37-30-9-A   CIRCULAR             1.70     2.27     0.42     1.70     1       15.97
  P-J1-37-31-1-A   CIRCULAR             9.00    63.62     2.25     9.00     1      412.79
  P-J1-37-31-10-A  CIRCULAR             7.00    38.48     1.75     7.00     1      584.02
  P-J1-37-31-12-B  CIRCULAR             1.50     1.77     0.38     1.50     1       12.70
  P-J1-37-31-2     CIRCULAR             7.00    38.48     1.75     7.00     1      598.59
  P-J1-37-31-32    CIRCULAR             5.00    19.63     1.25     5.00     1      167.31
  P-J1-37-31-41-2  CIRCULAR             9.00    63.62     2.25     9.00     1      728.92
  P-J1-37-31-42    CIRCULAR             9.00    63.62     2.25     9.00     1      934.28
  P-J1-37-31-43    CIRCULAR             7.00    38.48     1.75     7.00     1      578.73
  P-J1-37-31-46-A  CIRCULAR             9.00    63.62     2.25     9.00     1      658.56
  P-J1-37-31-47-2  CIRCULAR             9.00    63.62     2.25     9.00     1      425.83
  P-J1-37-31-48-1  CIRCULAR             9.00    63.62     2.25     9.00     1      421.20
  P-J1-37-31-49-2  CIRCULAR             9.00    63.62     2.25     9.00     1      411.41
  P-J1-37-31-5-A   CIRCULAR             1.50     1.77     0.38     1.50     1        1.05
  P-J1-37-31-6-A   CIRCULAR             1.50     1.77     0.38     1.50     1        8.38
  P-J1-37-31-9-A   CIRCULAR             7.00    38.48     1.75     7.00     1      584.82
  P-J1-37-32-1     CIRCULAR             4.50    15.90     1.13     4.50     1       63.78
  P-J1-37-32-2     CIRCULAR             4.50    15.90     1.13     4.50     1       63.74
  P-J1-37-32-29-A  CIRCULAR             6.00    28.27     1.50     6.00     1      150.52
  P-J1-37-32-29-B  CIRCULAR             6.00    28.27     1.50     6.00     1      170.12
  P-J1-37-32-3     CIRCULAR             4.50    15.90     1.13     4.50     1       58.11
  P-J1-37-32-30-A  CIRCULAR             5.00    19.63     1.25     5.00     1       99.71
  P-J1-37-32-32-B  CIRCULAR             2.50     4.91     0.63     2.50     1       65.29
  P-J1-37-32-35-A  CIRCULAR             5.00    19.63     1.25     5.00     1      101.31
  P-J1-37-32-35-B  CIRCULAR             5.00    19.63     1.25     5.00     1       63.69
  P-J1-37-32-35-D  CIRCULAR             5.00    19.63     1.25     5.00     1      143.37
  P-J1-37-32-52-2  CIRCULAR             9.00    63.62     2.25     9.00     1      197.09
  P-J1-37-32-6-A   CIRCULAR             4.50    15.90     1.13     4.50     1       64.94
  P-J1-37-32-61    CIRCULAR             4.50    15.90     1.13     4.50     1       66.84
  P-J1-37-32-61-A  CIRCULAR             4.50    15.90     1.13     4.50     1      121.43
  P-J1-37-32-62    CIRCULAR             4.50    15.90     1.13     4.50     1       65.62
  P-J1-38-30-5     CIRCULAR             2.50     4.91     0.63     2.50     1       28.77
  P-J1-38-30-6-A   CIRCULAR             2.50     4.91     0.63     2.50     1       49.32
  
  
  
  *********************
  Control Actions Taken
  *********************

  
  **************************        Volume        Volume
  Flow Routing Continuity        acre-feet      10^6 gal
  **************************     ---------     ---------
  Dry Weather Inflow .......      0.000000      0.000000
  Wet Weather Inflow .......    152.056461     49.549869
  Groundwater Inflow .......      0.000000      0.000000
  RDII Inflow ..............      0.000000      0.000000
  External Inflow ..........      5.790962      1.887072
  External Outflow .........    153.218621     49.928577
  Internal Outflow .........      0.000000      0.000000
  Return Flow to Surface....      3.051952      0.994524
  Initial Stored Volume ....      0.000035      0.000011
  Final Stored Volume ......     11.279992      3.675754
  Continuity Error (%) .....   -6.14714145
  
  
  *************************
  Highest Continuity Errors
  *************************
  Node Ids1 (-115.99%)
  Node Cistern1 (-63.17%)
  Node Cistern2 (-42.32%)
  Node I5-38-32-27 (24.30%)
  Node Cistern3 (-4.19%)
  Node J1-36-30-27-B (2.30%)
  Node J1-36-30-32-A (2.08%)
  Node I5-37-31-9 (-1.91%)
  Node J1-36-30-27-C (1.42%)
  Node J1-36-30-27-A (1.35%)
  Node I5-37-32-29 (1.22%)
  Node J1-36-31-1-B (1.19%)
  
  
  ***************************
  Time-Step Critical Elements
  ***************************
  None
  
  
  ********************************
  Highest Flow Instability Indices
  ********************************
  All links are stable.
  
  
  *************************
  Routing Time Step Summary
  *************************
  Minimum Time Step           :     0.67 sec
  Average Time Step           :     0.82 sec
  Maximum Time Step           :     1.22 sec
  Percent in Steady State     :     0.00
  Average Iterations per Step :     7.27
  
  
  ***************************
  Subcatchment Runoff Summary
  ***************************
  
  --------------------------------------------------------------------------------------------------------
                            Total      Total      Total      Total      Total       Total     Peak  Runoff
                           Precip      Runon       Evap      Infil     Runoff      Runoff   Runoff   Coeff
  Subcatchment                 in         in         in         in         in    10^6 gal      CFS
  --------------------------------------------------------------------------------------------------------
  I1-35-31-18                0.00       0.00       0.00       0.00     306.02        0.17     1.57   0.000
  I1-35-32-54                0.00       0.00       0.00       0.00     580.18        0.33     2.74   0.000
  I1-36-30-36                0.00       0.00       0.00       0.00     421.63        0.24     5.84   0.000
  I1-36-30-44                0.00       0.00       0.00       0.00       6.02        0.00     0.16   0.000
  I1-36-30-45                0.00       0.00       0.00       0.00       5.49        0.00     0.08   0.000
  I1-36-31-133               0.00       0.00       0.00       0.00     308.12        0.17     4.03   0.000
  I1-36-31-136               0.00       0.00       0.00       0.00       4.85        0.00     0.16   0.000
  I1-36-31-141               0.00       0.00       0.00       0.00     274.19        0.15     8.37   0.000
  I1-36-31-146               0.00       0.00       0.00       0.00       1.33        0.00     0.07   0.000
  I1-36-31-151               0.00       0.00       0.00       0.00     266.05        0.15    10.28   0.000
  I1-36-31-155               0.00       0.00       0.00       0.00      77.70        0.04     1.45   0.000
  I1-36-31-156               0.00       0.00       0.00       0.00    1856.21        1.04    16.75   0.000
  I1-36-31-176               0.00       0.00       0.00       0.00     235.79        0.13     2.34   0.000
  I1-36-31-177               0.00       0.00       0.00       0.00     143.28        0.08     1.84   0.000
  I1-36-31-179               0.00       0.00       0.00       0.00       0.55        0.00     0.03   0.000
  I1-36-31-180               0.00       0.00       0.00       0.00       1.95        0.00     0.10   0.000
  I1-36-31-181               0.00       0.00       0.00       0.00       4.78        0.00     0.25   0.000
  I1-36-31-33                0.00       0.00       0.00       0.00     594.17        0.33     5.24   0.000
  I1-36-31-34                0.00       0.00       0.00       0.00      84.65        0.05     1.17   0.000
  I1-36-31-35                0.00       0.00       0.00       0.00     637.05        0.36     5.86   0.000
  I1-36-31-40                0.00       0.00       0.00       0.00       2.31        0.00     0.10   0.000
  I1-36-31-41                0.00       0.00       0.00       0.00       6.66        0.00     0.16   0.000
  I1-36-31-42                0.00       0.00       0.00       0.00      65.41        0.04     0.87   0.000
  I1-36-31-43                0.00       0.00       0.00       0.00     121.21        0.07     1.26   0.000
  I1-36-31-44                0.00       0.00       0.00       0.00       5.90        0.00     0.15   0.000
  I1-36-31-45                0.00       0.00       0.00       0.00       5.61        0.00     0.22   0.000
  I1-36-31-46                0.00       0.00       0.00       0.00       6.77        0.00     0.31   0.000
  I1-36-31-51                0.00       0.00       0.00       0.00    1773.75        1.00     7.00   0.000
  I1-36-31-52                0.00       0.00       0.00       0.00       4.73        0.00     0.07   0.000
  I1-36-32-12                0.00       0.00       0.00       0.00       1.29        0.00     0.06   0.000
[...]
  -------------------------------------------------------------
  OCT-17-2024 00:06:00      0.000     0.000     0.000       0.0
  OCT-17-2024 00:12:00      0.000     0.000     0.000       0.0
  OCT-17-2024 00:18:00      0.000     0.000     0.000       0.0
  OCT-17-2024 00:24:00      0.000     0.000     0.000       0.0
  OCT-17-2024 00:30:00      0.000     0.000     0.000       0.0
  OCT-17-2024 00:36:00      0.000     0.000     0.000       0.0
  OCT-17-2024 00:42:00      0.000     0.000     0.000       0.0
  OCT-17-2024 00:48:00      0.000     0.000     0.000       0.0
  OCT-17-2024 00:54:00      0.000     0.000     0.000       0.0
  OCT-17-2024 01:00:00      0.000     0.000     0.000       0.0
  OCT-17-2024 01:06:00      0.000     0.000     0.000       0.0
  OCT-17-2024 01:12:00      0.000     0.000     0.000       0.0
  OCT-17-2024 01:18:00      0.000     0.000     0.000       0.0
  OCT-17-2024 01:24:00      0.000     0.000     0.000       0.0
  OCT-17-2024 01:30:00      0.000     0.000     0.000       0.0
  OCT-17-2024 01:36:00      2.347     0.000     0.500     100.0
  OCT-17-2024 01:42:00      2.305     0.000     0.500     100.0
  OCT-17-2024 01:48:00      2.801     0.000     0.500     100.0
  OCT-17-2024 01:54:00      3.215     0.000     0.500     100.0
  OCT-17-2024 02:00:00      3.537     0.000     0.500     100.0
  OCT-17-2024 02:06:00      3.800     0.000     0.500     100.0
  OCT-17-2024 02:12:00      4.039     0.000     0.500     100.0
  OCT-17-2024 02:18:00      4.249     0.000     0.500     100.0
  OCT-17-2024 02:24:00      4.436     0.000     0.500     100.0
  OCT-17-2024 02:30:00      4.605     0.000     0.500     100.0
  OCT-17-2024 02:36:00      4.759     0.000     0.500     100.0
  OCT-17-2024 02:42:00      4.877     0.000     0.500     100.0
  OCT-17-2024 02:48:00      4.978     0.000     0.500     100.0
  OCT-17-2024 02:54:00      5.092     0.000     0.500     100.0
  OCT-17-2024 03:00:00      5.143     0.000     0.500     100.0
  OCT-17-2024 03:06:00      5.220     0.000     0.500     100.0
  OCT-17-2024 03:12:00      5.266     0.000     0.500     100.0
  OCT-17-2024 03:18:00      5.275     0.000     0.500     100.0
  OCT-17-2024 03:24:00      5.256     0.000     0.500     100.0
  OCT-17-2024 03:30:00      5.195     0.000     0.500     100.0
  OCT-17-2024 03:36:00      5.217     0.000     0.500     100.0
  OCT-17-2024 03:42:00      5.339     0.000     0.500     100.0
  OCT-17-2024 03:48:00      5.384     0.000     0.500     100.0
  OCT-17-2024 03:54:00      5.455     0.000     0.500     100.0
  OCT-17-2024 04:00:00      5.567     0.000     0.500     100.0
  OCT-17-2024 04:06:00      5.668     0.000     0.500     100.0
  OCT-17-2024 04:12:00      5.762     0.000     0.500     100.0
  OCT-17-2024 04:18:00      5.854     0.000     0.500     100.0
  OCT-17-2024 04:24:00      5.939     0.000     0.500     100.0
  OCT-17-2024 04:30:00      6.022     0.000     0.500     100.0
  OCT-17-2024 04:36:00      6.100     0.000     0.500     100.0
  OCT-17-2024 04:42:00      6.175     0.000     0.500     100.0
  OCT-17-2024 04:48:00      6.200     0.000     0.500     100.0
  OCT-17-2024 04:54:00      6.205     0.000     0.500     100.0
  OCT-17-2024 05:00:00      6.278     0.000     0.500     100.0
  OCT-17-2024 05:06:00      6.348     0.000     0.500     100.0
  OCT-17-2024 05:12:00      6.373     0.000     0.500     100.0
  OCT-17-2024 05:18:00      6.340     0.000     0.500     100.0
  OCT-17-2024 05:24:00      6.333     0.000     0.500     100.0
  OCT-17-2024 05:30:00      6.333     0.000     0.500     100.0
  OCT-17-2024 05:36:00      6.408     0.000     0.500     100.0
  OCT-17-2024 05:42:00      6.425     0.000     0.500     100.0
  OCT-17-2024 05:48:00      6.496     0.000     0.500     100.0
  OCT-17-2024 05:54:00      6.511     0.000     0.500     100.0
  OCT-17-2024 06:00:00      6.515     0.000     0.500     100.0
  OCT-17-2024 06:06:00      6.527     0.000     0.500     100.0
  OCT-17-2024 06:12:00      6.504     0.000     0.500     100.0
  OCT-17-2024 06:18:00      6.543     0.000     0.500     100.0
  OCT-17-2024 06:24:00      6.576     0.000     0.500     100.0
  OCT-17-2024 06:30:00      6.584     0.000     0.500     100.0
  OCT-17-2024 06:36:00      6.602     0.000     0.500     100.0
  OCT-17-2024 06:42:00      6.655     0.000     0.500     100.0
  OCT-17-2024 06:48:00      6.687     0.000     0.500     100.0
  OCT-17-2024 06:54:00      6.734     0.000     0.500     100.0
  OCT-17-2024 07:00:00      6.768     0.000     0.500     100.0
  OCT-17-2024 07:06:00      6.790     0.000     0.500     100.0
  OCT-17-2024 07:12:00      6.830     0.000     0.500     100.0
  OCT-17-2024 07:18:00      6.806     0.000     0.500     100.0
  OCT-17-2024 07:24:00      6.813     0.000     0.500     100.0
  OCT-17-2024 07:30:00      6.827     0.000     0.500     100.0
  OCT-17-2024 07:36:00      6.820     0.000     0.500     100.0
  OCT-17-2024 07:42:00      6.877     0.000     0.500     100.0
  OCT-17-2024 07:48:00      6.894     0.000     0.500     100.0
  OCT-17-2024 07:54:00      6.923     0.000     0.500     100.0
  OCT-17-2024 08:00:00      6.974     0.000     0.500     100.0
  OCT-17-2024 08:06:00      6.972     0.000     0.500     100.0
  OCT-17-2024 08:12:00      7.021     0.000     0.500     100.0
  OCT-17-2024 08:18:00      7.059     0.000     0.500     100.0
  OCT-17-2024 08:24:00      7.055     0.000     0.500     100.0
  OCT-17-2024 08:30:00      7.084     0.000     0.500     100.0
  OCT-17-2024 08:36:00      7.121     0.000     0.500     100.0
  OCT-17-2024 08:42:00      7.164     0.000     0.500     100.0
  OCT-17-2024 08:48:00      7.186     0.000     0.500     100.0
  OCT-17-2024 08:54:00      7.210     0.000     0.500     100.0
  OCT-17-2024 09:00:00      7.219     0.000     0.500     100.0
  OCT-17-2024 09:06:00      7.219     0.000     0.500     100.0
  OCT-17-2024 09:12:00      7.248     0.000     0.500     100.0
  OCT-17-2024 09:18:00      7.250     0.000     0.500     100.0
  OCT-17-2024 09:24:00      7.262     0.000     0.500     100.0
  OCT-17-2024 09:30:00      7.276     0.000     0.500     100.0
  OCT-17-2024 09:36:00      7.297     0.000     0.500     100.0
  OCT-17-2024 09:42:00      7.299     0.000     0.500     100.0
  OCT-17-2024 09:48:00      7.332     0.000     0.500     100.0
  OCT-17-2024 09:54:00      7.358     0.000     0.500     100.0
  OCT-17-2024 10:00:00      7.365     0.000     0.500     100.0
  
  
  <<< Link orifice2 >>>
  -------------------------------------------------------------
                             Flow  Velocity     Depth   Percent
  Date        Time            CFS    ft/sec      feet      Full
  -------------------------------------------------------------
  OCT-17-2024 00:06:00      0.000     0.000     0.000       0.0
  OCT-17-2024 00:12:00      0.000     0.000     0.000       0.0
  OCT-17-2024 00:18:00      0.000     0.000     0.000       0.0
  OCT-17-2024 00:24:00      0.000     0.000     0.000       0.0
  OCT-17-2024 00:30:00      0.000     0.000     0.000       0.0
  OCT-17-2024 00:36:00      0.000     0.000     0.000       0.0
  OCT-17-2024 00:42:00      0.000     0.000     0.000       0.0
  OCT-17-2024 00:48:00      0.000     0.000     0.000       0.0
  OCT-17-2024 00:54:00      0.000     0.000     0.000       0.0
  OCT-17-2024 01:00:00      0.000     0.000     0.000       0.0
  OCT-17-2024 01:06:00      0.000     0.000     0.000       0.0
  OCT-17-2024 01:12:00      0.000     0.000     0.000       0.0
  OCT-17-2024 01:18:00      0.000     0.000     0.000       0.0
  OCT-17-2024 01:24:00      0.000     0.000     0.000       0.0
  OCT-17-2024 01:30:00      0.000     0.000     0.000       0.0
  OCT-17-2024 01:36:00      1.169     0.000     0.500     100.0
  OCT-17-2024 01:42:00      1.804     0.000     0.500     100.0
  OCT-17-2024 01:48:00      1.930     0.000     0.500     100.0
  OCT-17-2024 01:54:00      2.023     0.000     0.500     100.0
  OCT-17-2024 02:00:00      2.135     0.000     0.500     100.0
  OCT-17-2024 02:06:00      2.253     0.000     0.500     100.0
  OCT-17-2024 02:12:00      2.376     0.000     0.500     100.0
  OCT-17-2024 02:18:00      2.500     0.000     0.500     100.0
  OCT-17-2024 02:24:00      2.623     0.000     0.500     100.0
  OCT-17-2024 02:30:00      2.743     0.000     0.500     100.0
  OCT-17-2024 02:36:00      2.862     0.000     0.500     100.0
  OCT-17-2024 02:42:00      2.977     0.000     0.500     100.0
  OCT-17-2024 02:48:00      3.087     0.000     0.500     100.0
  OCT-17-2024 02:54:00      3.193     0.000     0.500     100.0
  OCT-17-2024 03:00:00      3.295     0.000     0.500     100.0
  OCT-17-2024 03:06:00      3.392     0.000     0.500     100.0
  OCT-17-2024 03:12:00      3.484     0.000     0.500     100.0
  OCT-17-2024 03:18:00      3.571     0.000     0.500     100.0
  OCT-17-2024 03:24:00      3.651     0.000     0.500     100.0
  OCT-17-2024 03:30:00      3.725     0.000     0.500     100.0
  OCT-17-2024 03:36:00      3.791     0.000     0.500     100.0
  OCT-17-2024 03:42:00      3.859     0.000     0.500     100.0
  OCT-17-2024 03:48:00      3.925     0.000     0.500     100.0
  OCT-17-2024 03:54:00      3.990     0.000     0.500     100.0
  OCT-17-2024 04:00:00      4.055     0.000     0.500     100.0
  OCT-17-2024 04:06:00      4.121     0.000     0.500     100.0
  OCT-17-2024 04:12:00      4.187     0.000     0.500     100.0
  OCT-17-2024 04:18:00      4.254     0.000     0.500     100.0
  OCT-17-2024 04:24:00      4.320     0.000     0.500     100.0
  OCT-17-2024 04:30:00      4.386     0.000     0.500     100.0
  OCT-17-2024 04:36:00      4.451     0.000     0.500     100.0
  OCT-17-2024 04:42:00      4.516     0.000     0.500     100.0
  OCT-17-2024 04:48:00      4.580     0.000     0.500     100.0
  OCT-17-2024 04:54:00      4.640     0.000     0.500     100.0
  OCT-17-2024 05:00:00      4.701     0.000     0.500     100.0
  OCT-17-2024 05:06:00      4.768     0.000     0.500     100.0
  OCT-17-2024 05:12:00      4.832     0.000     0.500     100.0
  OCT-17-2024 05:18:00      4.890     0.000     0.500     100.0
  OCT-17-2024 05:24:00      4.944     0.000     0.500     100.0
  OCT-17-2024 05:30:00      4.994     0.000     0.500     100.0
  OCT-17-2024 05:36:00      5.043     0.000     0.500     100.0
  OCT-17-2024 05:42:00      5.091     0.000     0.500     100.0
  OCT-17-2024 05:48:00      5.138     0.000     0.500     100.0
  OCT-17-2024 05:54:00      5.185     0.000     0.500     100.0
  OCT-17-2024 06:00:00      5.229     0.000     0.500     100.0
  OCT-17-2024 06:06:00      5.272     0.000     0.500     100.0
  OCT-17-2024 06:12:00      5.313     0.000     0.500     100.0
  OCT-17-2024 06:18:00      5.352     0.000     0.500     100.0
  OCT-17-2024 06:24:00      5.390     0.000     0.500     100.0
  OCT-17-2024 06:30:00      5.429     0.000     0.500     100.0
  OCT-17-2024 06:36:00      5.466     0.000     0.500     100.0
  OCT-17-2024 06:42:00      5.503     0.000     0.500     100.0
  OCT-17-2024 06:48:00      5.539     0.000     0.500     100.0
  OCT-17-2024 06:54:00      5.575     0.000     0.500     100.0
  OCT-17-2024 07:00:00      5.612     0.000     0.500     100.0
  OCT-17-2024 07:06:00      5.648     0.000     0.500     100.0
  OCT-17-2024 07:12:00      5.684     0.000     0.500     100.0
  OCT-17-2024 07:18:00      5.718     0.000     0.500     100.0
  OCT-17-2024 07:24:00      5.751     0.000     0.500     100.0
  OCT-17-2024 07:30:00      5.783     0.000     0.500     100.0
  OCT-17-2024 07:36:00      5.814     0.000     0.500     100.0
  OCT-17-2024 07:42:00      5.844     0.000     0.500     100.0
  OCT-17-2024 07:48:00      5.875     0.000     0.500     100.0
  OCT-17-2024 07:54:00      5.905     0.000     0.500     100.0
  OCT-17-2024 08:00:00      5.936     0.000     0.500     100.0
  OCT-17-2024 08:06:00      5.966     0.000     0.500     100.0
  OCT-17-2024 08:12:00      5.996     0.000     0.500     100.0
  OCT-17-2024 08:18:00      6.026     0.000     0.500     100.0
  OCT-17-2024 08:24:00      6.056     0.000     0.500     100.0
  OCT-17-2024 08:30:00      6.085     0.000     0.500     100.0
  OCT-17-2024 08:36:00      6.113     0.000     0.500     100.0
  OCT-17-2024 08:42:00      6.143     0.000     0.500     100.0
  OCT-17-2024 08:48:00      6.172     0.000     0.500     100.0
  OCT-17-2024 08:54:00      6.201     0.000     0.500     100.0
  OCT-17-2024 09:00:00      6.229     0.000     0.500     100.0
  OCT-17-2024 09:06:00      6.257     0.000     0.500     100.0
  OCT-17-2024 09:12:00      6.284     0.000     0.500     100.0
  OCT-17-2024 09:18:00      6.310     0.000     0.500     100.0
  OCT-17-2024 09:24:00      6.336     0.000     0.500     100.0
  OCT-17-2024 09:30:00      6.361     0.000     0.500     100.0
  OCT-17-2024 09:36:00      6.386     0.000     0.500     100.0
  OCT-17-2024 09:42:00      6.411     0.000     0.500     100.0
  OCT-17-2024 09:48:00      6.435     0.000     0.500     100.0
  OCT-17-2024 09:54:00      6.460     0.000     0.500     100.0
  OCT-17-2024 10:00:00      6.484     0.000     0.500     100.0
  
  
  <<< Link weir1 >>>
  -------------------------------------------------------------
                             Flow  Velocity     Depth   Percent
  Date        Time            CFS    ft/sec      feet      Full
  -------------------------------------------------------------
  OCT-17-2024 00:06:00      0.000     0.000     0.000       0.0
  OCT-17-2024 00:12:00      0.000     0.000     0.000       0.0
  OCT-17-2024 00:18:00      0.000     0.000     0.000       0.0
  OCT-17-2024 00:24:00      0.000     0.000     0.000       0.0
  OCT-17-2024 00:30:00      0.000     0.000     0.000       0.0
  OCT-17-2024 00:36:00      0.000     0.000     0.000       0.0
  OCT-17-2024 00:42:00      0.000     0.000     0.000       0.0
  OCT-17-2024 00:48:00      0.000     0.000     0.000       0.0
  OCT-17-2024 00:54:00      0.000     0.000     0.000       0.0
  OCT-17-2024 01:00:00      0.000     0.000     0.000       0.0
  OCT-17-2024 01:06:00      0.000     0.000     0.000       0.0
  OCT-17-2024 01:12:00      0.000     0.000     0.000       0.0
  OCT-17-2024 01:18:00      0.000     0.000     0.000       0.0
  OCT-17-2024 01:24:00      0.000     0.000     0.000       0.0
  OCT-17-2024 01:30:00      0.000     0.000     0.000       0.0
  OCT-17-2024 01:36:00      0.000     0.000     0.000       0.0
  OCT-17-2024 01:42:00      1.734     0.000     1.000     100.0
  OCT-17-2024 01:48:00      1.917     0.000     1.000     100.0
  OCT-17-2024 01:54:00      2.005     0.000     1.000     100.0
  OCT-17-2024 02:00:00      2.113     0.000     1.000     100.0
  OCT-17-2024 02:06:00      2.230     0.000     1.000     100.0
  OCT-17-2024 02:12:00      2.350     0.000     1.000     100.0
  OCT-17-2024 02:18:00      2.473     0.000     1.000     100.0
  OCT-17-2024 02:24:00      2.594     0.000     1.000     100.0
  OCT-17-2024 02:30:00      2.714     0.000     1.000     100.0
  OCT-17-2024 02:36:00      2.832     0.000     1.000     100.0
  OCT-17-2024 02:42:00      2.947     0.000     1.000     100.0
  OCT-17-2024 02:48:00      3.057     0.000     1.000     100.0
  OCT-17-2024 02:54:00      3.163     0.000     1.000     100.0
  OCT-17-2024 03:00:00      3.265     0.000     1.000     100.0
  OCT-17-2024 03:06:00      3.363     0.000     1.000     100.0
  OCT-17-2024 03:12:00      3.456     0.000     1.000     100.0
  OCT-17-2024 03:18:00      3.543     0.000     1.000     100.0
  OCT-17-2024 03:24:00      3.625     0.000     1.000     100.0
  OCT-17-2024 03:30:00      3.700     0.000     1.000     100.0
  OCT-17-2024 03:36:00      3.769     0.000     1.000     100.0
  OCT-17-2024 03:42:00      3.835     0.000     1.000     100.0
  OCT-17-2024 03:48:00      3.902     0.000     1.000     100.0
  OCT-17-2024 03:54:00      3.966     0.000     1.000     100.0
  OCT-17-2024 04:00:00      4.031     0.000     1.000     100.0
  OCT-17-2024 04:06:00      4.096     0.000     1.000     100.0
  OCT-17-2024 04:12:00      4.162     0.000     1.000     100.0
  OCT-17-2024 04:18:00      4.228     0.000     1.000     100.0
  OCT-17-2024 04:24:00      4.294     0.000     1.000     100.0
  OCT-17-2024 04:30:00      4.359     0.000     1.000     100.0
  OCT-17-2024 04:36:00      4.425     0.000     1.000     100.0
  OCT-17-2024 04:42:00      4.489     0.000     1.000     100.0
  OCT-17-2024 04:48:00      4.553     0.000     1.000     100.0
  OCT-17-2024 04:54:00      4.615     0.000     1.000     100.0
  OCT-17-2024 05:00:00      4.668     0.000     1.000     100.0
  OCT-17-2024 05:06:00      4.682     0.000     1.000     100.0
  OCT-17-2024 05:12:00      4.707     0.000     1.000     100.0
  OCT-17-2024 05:18:00      4.739     0.000     1.000     100.0
  OCT-17-2024 05:24:00      4.776     0.000     1.000     100.0
  OCT-17-2024 05:30:00      4.815     0.000     1.000     100.0
  OCT-17-2024 05:36:00      4.856     0.000     1.000     100.0
  OCT-17-2024 05:42:00      4.899     0.000     1.000     100.0
  OCT-17-2024 05:48:00      4.942     0.000     1.000     100.0
  OCT-17-2024 05:54:00      4.985     0.000     1.000     100.0
  OCT-17-2024 06:00:00      5.029     0.000     1.000     100.0
  OCT-17-2024 06:06:00      5.072     0.000     1.000     100.0
  OCT-17-2024 06:12:00      5.115     0.000     1.000     100.0
  OCT-17-2024 06:18:00      5.156     0.000     1.000     100.0
  OCT-17-2024 06:24:00      5.197     0.000     1.000     100.0
  OCT-17-2024 06:30:00      5.237     0.000     1.000     100.0
  OCT-17-2024 06:36:00      5.277     0.000     1.000     100.0
  OCT-17-2024 06:42:00      5.315     0.000     1.000     100.0
  OCT-17-2024 06:48:00      5.353     0.000     1.000     100.0
  OCT-17-2024 06:54:00      5.391     0.000     1.000     100.0
  OCT-17-2024 07:00:00      5.428     0.000     1.000     100.0
  OCT-17-2024 07:06:00      5.465     0.000     1.000     100.0
  OCT-17-2024 07:12:00      5.501     0.000     1.000     100.0
  OCT-17-2024 07:18:00      5.537     0.000     1.000     100.0
  OCT-17-2024 07:24:00      5.572     0.000     1.000     100.0
  OCT-17-2024 07:30:00      5.607     0.000     1.000     100.0
  OCT-17-2024 07:36:00      5.641     0.000     1.000     100.0
  OCT-17-2024 07:42:00      5.674     0.000     1.000     100.0
  OCT-17-2024 07:48:00      5.706     0.000     1.000     100.0
  OCT-17-2024 07:54:00      5.738     0.000     1.000     100.0
  OCT-17-2024 08:00:00      5.770     0.000     1.000     100.0
  OCT-17-2024 08:06:00      5.801     0.000     1.000     100.0
  OCT-17-2024 08:12:00      5.832     0.000     1.000     100.0
  OCT-17-2024 08:18:00      5.862     0.000     1.000     100.0
  OCT-17-2024 08:24:00      5.892     0.000     1.000     100.0
  OCT-17-2024 08:30:00      5.922     0.000     1.000     100.0
  OCT-17-2024 08:36:00      5.952     0.000     1.000     100.0
  OCT-17-2024 08:42:00      5.981     0.000     1.000     100.0
  OCT-17-2024 08:48:00      6.011     0.000     1.000     100.0
  OCT-17-2024 08:54:00      6.040     0.000     1.000     100.0
  OCT-17-2024 09:00:00      6.069     0.000     1.000     100.0
  OCT-17-2024 09:06:00      6.097     0.000     1.000     100.0
  OCT-17-2024 09:12:00      6.126     0.000     1.000     100.0
  OCT-17-2024 09:18:00      6.154     0.000     1.000     100.0
  OCT-17-2024 09:24:00      6.181     0.000     1.000     100.0
  OCT-17-2024 09:30:00      6.208     0.000     1.000     100.0
  OCT-17-2024 09:36:00      6.235     0.000     1.000     100.0
  OCT-17-2024 09:42:00      6.261     0.000     1.000     100.0
  OCT-17-2024 09:48:00      6.287     0.000     1.000     100.0
  OCT-17-2024 09:54:00      6.312     0.000     1.000     100.0
  OCT-17-2024 10:00:00      6.338     0.000     1.000     100.0
  

  Analysis begun on:  Thu Oct 17 10:28:16 2024
  Analysis ended on:  Thu Oct 17 10:39:49 2024
  Total elapsed time: 00:11:33